<?xml version="1.0" encoding="UTF-8"?>

<!-- generated on Thu Dec 20 14:19:39 2018 by SUMO polyconvert Version 0.32.0
<?xml version="1.0" encoding="UTF-8"?>

<configuration xmlns:xsi="http://www.w3.org/2001/XMLSchema-instance" xsi:noNamespaceSchemaLocation="http://sumo.dlr.de/xsd/polyconvertConfiguration.xsd">

    <input>
        <net-file value="osm.net.xml"/>
        <type-file value="typemap.xml"/>
    </input>

    <output>
        <output-file value="osm.poly.xml"/>
    </output>

</configuration>
-->

<additional xmlns:xsi="http://www.w3.org/2001/XMLSchema-instance" xsi:noNamespaceSchemaLocation="http://sumo.dlr.de/xsd/additional_file.xsd">
    <location netOffset="-256401.51,-3457355.17" convBoundary="16781.94,7682.40,17392.21,8202.67" origBoundary="120.442586,31.225359,120.778246,31.405288" projParameter="+proj=utm +zone=51 +ellps=WGS84 +datum=WGS84 +units=m +no_defs"/>

</additional>
