<?xml version="1.0" encoding="UTF-8"?>

<!-- generated on Sat Dec 22 22:30:42 2018 by SUMO duarouter Version 0.32.0
<?xml version="1.0" encoding="UTF-8"?>

<configuration xmlns:xsi="http://www.w3.org/2001/XMLSchema-instance" xsi:noNamespaceSchemaLocation="http://sumo.dlr.de/xsd/duarouterConfiguration.xsd">

    <input>
        <net-file value="env1.net.xml"/>
        <additional-files value="car.add.xml"/>
        <route-files value="trips.trips.xml"/>
    </input>

    <output>
        <output-file value="cars.rou.xml"/>
        <alternatives-output value="cars.rou.alt.xml"/>
    </output>

    <processing>
        <ignore-errors value="true"/>
    </processing>

    <time>
        <begin value="0"/>
        <end value="50000.0"/>
    </time>

    <report>
        <no-warnings value="true"/>
        <no-step-log value="true"/>
    </report>

</configuration>
-->

<routes xmlns:xsi="http://www.w3.org/2001/XMLSchema-instance" xsi:noNamespaceSchemaLocation="http://sumo.dlr.de/xsd/routes_file.xsd">
    <vType id="car" length="4.50" speedFactor="normc(1.00,0.20,0.20,2.00)" vClass="passenger" accel="2.0"/>
    <vehicle id="0" type="car" depart="0.00" departLane="best" departSpeed="max">
        <route edges="gneE15 -gneE23 -gneE9"/>
    </vehicle>
    <vehicle id="15" type="car" depart="12.00" departLane="best" departSpeed="max">
        <route edges="gneE38 gneE39 gneE13 -gneE44 -gneE7 -gneE38"/>
    </vehicle>
    <vehicle id="16" type="car" depart="12.80" departLane="best" departSpeed="max">
        <route edges="gneE25 gneE4 gneE30 gneE31 gneE32"/>
    </vehicle>
    <vehicle id="18" type="car" depart="14.40" departLane="best" departSpeed="max">
        <route edges="-gneE32 -gneE31 -gneE11 -gneE10 -gneE9"/>
    </vehicle>
    <vehicle id="22" type="car" depart="17.60" departLane="best" departSpeed="max">
        <route edges="-gneE47 -gneE44 -gneE7 -gneE38"/>
    </vehicle>
    <vehicle id="32" type="car" depart="25.60" departLane="best" departSpeed="max">
        <route edges="-gneE8 -gneE7 -gneE5 -gneE4 gneE26 gneE27 gneE28"/>
    </vehicle>
    <vehicle id="33" type="car" depart="26.40" departLane="best" departSpeed="max">
        <route edges="gneE21 gneE3 gneE4 gneE5 gneE7 gneE44 gneE47"/>
    </vehicle>
    <vehicle id="36" type="car" depart="28.80" departLane="best" departSpeed="max">
        <route edges="-gneE8 gneE44 gneE47"/>
    </vehicle>
    <vehicle id="37" type="car" depart="29.60" departLane="best" departSpeed="max">
        <route edges="-gneE41 -gneE40 -gneE12 -gneE30 -gneE29"/>
    </vehicle>
    <vehicle id="42" type="car" depart="33.60" departLane="best" departSpeed="max">
        <route edges="gneE2 gneE3 gneE4 gneE30 gneE31 gneE32"/>
    </vehicle>
    <vehicle id="44" type="car" depart="35.20" departLane="best" departSpeed="max">
        <route edges="-gneE47 -gneE44 gneE8"/>
    </vehicle>
    <vehicle id="46" type="car" depart="36.80" departLane="best" departSpeed="max">
        <route edges="-gneE9"/>
    </vehicle>
    <vehicle id="51" type="car" depart="40.80" departLane="best" departSpeed="max">
        <route edges="gneE15 gneE16 gneE17 gneE18 gneE19 gneE48"/>
    </vehicle>
    <vehicle id="56" type="car" depart="44.80" departLane="best" departSpeed="max">
        <route edges="gneE15 gneE16 -gneE27 gneE11 gneE12 gneE13 gneE47"/>
    </vehicle>
    <vehicle id="61" type="car" depart="48.80" departLane="best" departSpeed="max">
        <route edges="-gneE32 -gneE31 -gneE30 gneE5 gneE7 gneE8"/>
    </vehicle>
    <vehicle id="76" type="car" depart="60.80" departLane="best" departSpeed="max">
        <route edges="gneE43 gneE44 gneE45 gneE48"/>
    </vehicle>
    <vehicle id="78" type="car" depart="62.40" departLane="best" departSpeed="max">
        <route edges="gneE29 gneE5 gneE7 -gneE43"/>
    </vehicle>
    <vehicle id="83" type="car" depart="66.40" departLane="best" departSpeed="max">
        <route edges="-gneE8 -gneE7 gneE39 gneE13 -gneE44 gneE8"/>
    </vehicle>
    <vehicle id="84" type="car" depart="67.20" departLane="best" departSpeed="max">
        <route edges="gneE8"/>
    </vehicle>
    <vehicle id="88" type="car" depart="70.40" departLane="best" departSpeed="max">
        <route edges="gneE9 gneE10 gneE11 gneE12 gneE13 gneE47"/>
    </vehicle>
    <vehicle id="92" type="car" depart="73.60" departLane="best" departSpeed="max">
        <route edges="gneE9 -gneE22 -gneE2"/>
    </vehicle>
    <vehicle id="96" type="car" depart="76.80" departLane="best" departSpeed="max">
        <route edges="-gneE47 -gneE44 -gneE7 -gneE5 -gneE4 -gneE3 -gneE2"/>
    </vehicle>
    <vehicle id="106" type="car" depart="84.80" departLane="best" departSpeed="max">
        <route edges="-gneE47 -gneE13 -gneE12 -gneE11 -gneE10 -gneE9"/>
    </vehicle>
    <vehicle id="109" type="car" depart="87.20" departLane="best" departSpeed="max">
        <route edges="gneE2 gneE3 gneE4 gneE5 -gneE38"/>
    </vehicle>
    <vehicle id="111" type="car" depart="88.80" departLane="best" departSpeed="max">
        <route edges="-gneE8 -gneE7 -gneE5 -gneE4 -gneE3 -gneE2"/>
    </vehicle>
    <vehicle id="115" type="car" depart="92.00" departLane="best" departSpeed="max">
        <route edges="gneE9 gneE10 gneE11 gneE12 gneE13 gneE47"/>
    </vehicle>
    <vehicle id="116" type="car" depart="92.80" departLane="best" departSpeed="max">
        <route edges="-gneE15"/>
    </vehicle>
    <vehicle id="118" type="car" depart="94.40" departLane="best" departSpeed="max">
        <route edges="gneE15 gneE16 -gneE27 -gneE26 gneE4 gneE5 -gneE38"/>
    </vehicle>
    <vehicle id="119" type="car" depart="95.20" departLane="best" departSpeed="max">
        <route edges="gneE2 gneE3 gneE4 gneE5 gneE7 gneE44 gneE45 gneE48"/>
    </vehicle>
    <vehicle id="122" type="car" depart="97.60" departLane="best" departSpeed="max">
        <route edges="-gneE8 gneE44 gneE45 gneE48"/>
    </vehicle>
    <vehicle id="150" type="car" depart="120.00" departLane="best" departSpeed="max">
        <route edges="gneE2 gneE22 gneE10 gneE27 gneE28"/>
    </vehicle>
    <vehicle id="151" type="car" depart="120.80" departLane="best" departSpeed="max">
        <route edges="-gneE47 -gneE44 -gneE7 -gneE5 -gneE4 -gneE3 -gneE2"/>
    </vehicle>
    <vehicle id="157" type="car" depart="125.60" departLane="best" departSpeed="max">
        <route edges="-gneE47 -gneE44 gneE8"/>
    </vehicle>
    <vehicle id="166" type="car" depart="132.80" departLane="best" departSpeed="max">
        <route edges="gneE15 gneE16 -gneE27 -gneE26 gneE4 gneE5 gneE7 gneE8"/>
    </vehicle>
    <vehicle id="172" type="car" depart="137.60" departLane="best" departSpeed="max">
        <route edges="-gneE48 -gneE45 -gneE44 -gneE7 -gneE5 -gneE4 -gneE25"/>
    </vehicle>
    <vehicle id="173" type="car" depart="138.40" departLane="best" departSpeed="max">
        <route edges="gneE43 -gneE7 -gneE5 -gneE29"/>
    </vehicle>
    <vehicle id="176" type="car" depart="140.80" departLane="best" departSpeed="max">
        <route edges="gneE2 gneE3 gneE4 -gneE29"/>
    </vehicle>
    <vehicle id="177" type="car" depart="141.60" departLane="best" departSpeed="max">
        <route edges="-gneE46 -gneE45 gneE47"/>
    </vehicle>
    <vehicle id="180" type="car" depart="144.00" departLane="best" departSpeed="max">
        <route edges="-gneE15"/>
    </vehicle>
    <vehicle id="184" type="car" depart="147.20" departLane="best" departSpeed="max">
        <route edges="gneE15 -gneE23 -gneE22 -gneE2"/>
    </vehicle>
    <vehicle id="188" type="car" depart="150.40" departLane="best" departSpeed="max">
        <route edges="-gneE8 -gneE7 -gneE38"/>
    </vehicle>
    <vehicle id="189" type="car" depart="151.20" departLane="best" departSpeed="max">
        <route edges="-gneE24 gneE16 -gneE27 -gneE26 gneE4 gneE5 gneE7 gneE8"/>
    </vehicle>
    <vehicle id="198" type="car" depart="158.40" departLane="best" departSpeed="max">
        <route edges="-gneE2"/>
    </vehicle>
    <vehicle id="199" type="car" depart="159.20" departLane="best" departSpeed="max">
        <route edges="gneE15"/>
    </vehicle>
    <vehicle id="207" type="car" depart="165.60" departLane="best" departSpeed="max">
        <route edges="-gneE28 -gneE27 gneE11 gneE12 gneE13 gneE47"/>
    </vehicle>
    <vehicle id="213" type="car" depart="170.40" departLane="best" departSpeed="max">
        <route edges="-gneE48 -gneE19 gneE41"/>
    </vehicle>
    <vehicle id="218" type="car" depart="174.40" departLane="best" departSpeed="max">
        <route edges="gneE15 gneE16 -gneE27 -gneE26 gneE4 gneE5 gneE7 gneE8"/>
    </vehicle>
    <vehicle id="219" type="car" depart="175.20" departLane="best" departSpeed="max">
        <route edges="-gneE9"/>
    </vehicle>
    <vehicle id="222" type="car" depart="177.60" departLane="best" departSpeed="max">
        <route edges="gneE38 -gneE5 -gneE4 gneE26 -gneE10 -gneE9"/>
    </vehicle>
    <vehicle id="226" type="car" depart="180.80" departLane="best" departSpeed="max">
        <route edges="gneE15 gneE16 -gneE27 -gneE26 -gneE25"/>
    </vehicle>
    <vehicle id="227" type="car" depart="181.60" departLane="best" departSpeed="max">
        <route edges="gneE9 gneE10 -gneE26 gneE4 gneE5 gneE7 gneE8"/>
    </vehicle>
    <vehicle id="229" type="car" depart="183.20" departLane="best" departSpeed="max">
        <route edges="-gneE48 -gneE19 -gneE18 -gneE17 -gneE16 -gneE15"/>
    </vehicle>
    <vehicle id="231" type="car" depart="184.80" departLane="best" departSpeed="max">
        <route edges="gneE38 -gneE5 -gneE29"/>
    </vehicle>
    <vehicle id="233" type="car" depart="186.40" departLane="best" departSpeed="max">
        <route edges="gneE9 gneE10 gneE11 gneE12 gneE13 gneE47"/>
    </vehicle>
    <vehicle id="235" type="car" depart="188.00" departLane="best" departSpeed="max">
        <route edges="-gneE47 -gneE13 gneE40 gneE41"/>
    </vehicle>
    <vehicle id="238" type="car" depart="190.40" departLane="best" departSpeed="max">
        <route edges="-gneE8 gneE44 gneE47"/>
    </vehicle>
    <vehicle id="242" type="car" depart="193.60" departLane="best" departSpeed="max">
        <route edges="-gneE28 -gneE16 gneE24"/>
    </vehicle>
    <vehicle id="243" type="car" depart="194.40" departLane="best" departSpeed="max">
        <route edges="gneE9 -gneE22 -gneE2"/>
    </vehicle>
    <vehicle id="254" type="car" depart="203.20" departLane="best" departSpeed="max">
        <route edges="gneE9 -gneE22 -gneE2"/>
    </vehicle>
    <vehicle id="257" type="car" depart="205.60" departLane="best" departSpeed="max">
        <route edges="gneE9 gneE23 gneE24"/>
    </vehicle>
    <vehicle id="260" type="car" depart="208.00" departLane="best" departSpeed="max">
        <route edges="gneE15 gneE16 gneE17 gneE18 gneE19 gneE48"/>
    </vehicle>
    <vehicle id="262" type="car" depart="209.60" departLane="best" departSpeed="max">
        <route edges="-gneE32 gneE18 gneE19 gneE46"/>
    </vehicle>
    <vehicle id="273" type="car" depart="218.40" departLane="best" departSpeed="max">
        <route edges="-gneE48 -gneE19 -gneE18 -gneE17 gneE28"/>
    </vehicle>
    <vehicle id="274" type="car" depart="219.20" departLane="best" departSpeed="max">
        <route edges="gneE21 -gneE2"/>
    </vehicle>
    <vehicle id="277" type="car" depart="221.60" departLane="best" departSpeed="max">
        <route edges="gneE9 gneE10 -gneE26 gneE4 -gneE29"/>
    </vehicle>
    <vehicle id="279" type="car" depart="223.20" departLane="best" departSpeed="max">
        <route edges="-gneE46 -gneE45 -gneE44 -gneE7 -gneE5 -gneE4 -gneE3 -gneE2"/>
    </vehicle>
    <vehicle id="284" type="car" depart="227.20" departLane="best" departSpeed="max">
        <route edges="gneE15 -gneE23 -gneE22 -gneE2"/>
    </vehicle>
    <vehicle id="285" type="car" depart="228.00" departLane="best" departSpeed="max">
        <route edges="gneE2 gneE22 gneE23 -gneE15"/>
    </vehicle>
    <vehicle id="286" type="car" depart="228.80" departLane="best" departSpeed="max">
        <route edges="gneE15 -gneE23 -gneE22 -gneE2"/>
    </vehicle>
    <vehicle id="294" type="car" depart="235.20" departLane="best" departSpeed="max">
        <route edges="gneE2 gneE3 gneE4 gneE30 gneE31 gneE32"/>
    </vehicle>
    <vehicle id="298" type="car" depart="238.40" departLane="best" departSpeed="max">
        <route edges="-gneE41 -gneE40 -gneE12 -gneE11 -gneE10 -gneE9"/>
    </vehicle>
    <vehicle id="300" type="car" depart="240.00" departLane="best" departSpeed="max">
        <route edges="gneE21 gneE3 gneE4 gneE5 -gneE38"/>
    </vehicle>
    <vehicle id="303" type="car" depart="242.40" departLane="best" departSpeed="max">
        <route edges="gneE24"/>
    </vehicle>
    <vehicle id="305" type="car" depart="244.00" departLane="best" departSpeed="max">
        <route edges="gneE9 gneE10 gneE11 gneE12 gneE40 gneE41"/>
    </vehicle>
    <vehicle id="308" type="car" depart="246.40" departLane="best" departSpeed="max">
        <route edges="gneE15 gneE16 gneE17 gneE18 gneE19 gneE48"/>
    </vehicle>
    <vehicle id="309" type="car" depart="247.20" departLane="best" departSpeed="max">
        <route edges="-gneE8 -gneE7 -gneE5 -gneE4 -gneE3 -gneE21"/>
    </vehicle>
    <vehicle id="313" type="car" depart="250.40" departLane="best" departSpeed="max">
        <route edges="gneE38 gneE7 gneE44 gneE47"/>
    </vehicle>
    <vehicle id="314" type="car" depart="251.20" departLane="best" departSpeed="max">
        <route edges="gneE2 gneE22 gneE10 gneE27 gneE28"/>
    </vehicle>
    <vehicle id="315" type="car" depart="252.00" departLane="best" departSpeed="max">
        <route edges="gneE2 gneE3 gneE4 gneE5 gneE7 gneE44 gneE45 gneE46"/>
    </vehicle>
    <vehicle id="316" type="car" depart="252.80" departLane="best" departSpeed="max">
        <route edges="-gneE48 -gneE45 -gneE44 -gneE7 -gneE5 -gneE29"/>
    </vehicle>
    <vehicle id="318" type="car" depart="254.40" departLane="best" departSpeed="max">
        <route edges="gneE43"/>
    </vehicle>
    <vehicle id="321" type="car" depart="256.80" departLane="best" departSpeed="max">
        <route edges="-gneE47 -gneE13 -gneE39 gneE7 gneE44 gneE47"/>
    </vehicle>
    <vehicle id="324" type="car" depart="259.20" departLane="best" departSpeed="max">
        <route edges="-gneE48 -gneE45 gneE47"/>
    </vehicle>
    <vehicle id="328" type="car" depart="262.40" departLane="best" departSpeed="max">
        <route edges="gneE9 gneE23 -gneE15"/>
    </vehicle>
    <vehicle id="330" type="car" depart="264.00" departLane="best" departSpeed="max">
        <route edges="-gneE48"/>
    </vehicle>
    <vehicle id="335" type="car" depart="268.00" departLane="best" departSpeed="max">
        <route edges="gneE38 -gneE5 -gneE4 gneE26 -gneE10 -gneE9"/>
    </vehicle>
    <vehicle id="340" type="car" depart="272.00" departLane="best" departSpeed="max">
        <route edges="gneE2"/>
    </vehicle>
    <vehicle id="345" type="car" depart="276.00" departLane="best" departSpeed="max">
        <route edges="gneE9 gneE10 -gneE26 gneE4 gneE5 -gneE38"/>
    </vehicle>
    <vehicle id="347" type="car" depart="277.60" departLane="best" departSpeed="max">
        <route edges="gneE9 gneE23 -gneE15"/>
    </vehicle>
    <vehicle id="351" type="car" depart="280.80" departLane="best" departSpeed="max">
        <route edges="-gneE47 -gneE44 gneE8"/>
    </vehicle>
    <vehicle id="356" type="car" depart="284.80" departLane="best" departSpeed="max">
        <route edges="gneE9 gneE23 -gneE15"/>
    </vehicle>
    <vehicle id="357" type="car" depart="285.60" departLane="best" departSpeed="max">
        <route edges="gneE29 -gneE4 -gneE25"/>
    </vehicle>
    <vehicle id="358" type="car" depart="286.40" departLane="best" departSpeed="max">
        <route edges="-gneE47 -gneE13 -gneE12 -gneE11 gneE27 -gneE16 -gneE15"/>
    </vehicle>
    <vehicle id="360" type="car" depart="288.00" departLane="best" departSpeed="max">
        <route edges="-gneE8 -gneE43"/>
    </vehicle>
    <vehicle id="361" type="car" depart="288.80" departLane="best" departSpeed="max">
        <route edges="-gneE48 -gneE45 -gneE44 -gneE7 -gneE38"/>
    </vehicle>
    <vehicle id="365" type="car" depart="292.00" departLane="best" departSpeed="max">
        <route edges="gneE9 gneE10 gneE11 gneE12 gneE13 gneE47"/>
    </vehicle>
    <vehicle id="375" type="car" depart="300.00" departLane="best" departSpeed="max">
        <route edges="-gneE24 gneE16 -gneE27 -gneE26 -gneE25"/>
    </vehicle>
    <vehicle id="384" type="car" depart="307.20" departLane="best" departSpeed="max">
        <route edges="gneE2 gneE3 gneE4 gneE5 gneE7 gneE44 gneE45 gneE48"/>
    </vehicle>
    <vehicle id="388" type="car" depart="310.40" departLane="best" departSpeed="max">
        <route edges="-gneE48 -gneE45 gneE47"/>
    </vehicle>
    <vehicle id="392" type="car" depart="313.60" departLane="best" departSpeed="max">
        <route edges="-gneE41 -gneE40 -gneE12 -gneE30 -gneE29"/>
    </vehicle>
    <vehicle id="403" type="car" depart="322.40" departLane="best" departSpeed="max">
        <route edges="gneE8"/>
    </vehicle>
    <vehicle id="411" type="car" depart="328.80" departLane="best" departSpeed="max">
        <route edges="-gneE48"/>
    </vehicle>
    <vehicle id="416" type="car" depart="332.80" departLane="best" departSpeed="max">
        <route edges="gneE24"/>
    </vehicle>
    <vehicle id="417" type="car" depart="333.60" departLane="best" departSpeed="max">
        <route edges="-gneE28 -gneE27 -gneE10 -gneE22 -gneE2"/>
    </vehicle>
    <vehicle id="418" type="car" depart="334.40" departLane="best" departSpeed="max">
        <route edges="gneE2 gneE3 gneE4 gneE5 -gneE38"/>
    </vehicle>
    <vehicle id="420" type="car" depart="336.00" departLane="best" departSpeed="max">
        <route edges="gneE48"/>
    </vehicle>
    <vehicle id="426" type="car" depart="340.80" departLane="best" departSpeed="max">
        <route edges="gneE9 gneE23 -gneE15"/>
    </vehicle>
    <vehicle id="427" type="car" depart="341.60" departLane="best" departSpeed="max">
        <route edges="-gneE8 gneE44 gneE45 gneE48"/>
    </vehicle>
    <vehicle id="428" type="car" depart="342.40" departLane="best" departSpeed="max">
        <route edges="-gneE24 gneE16 gneE17 gneE32"/>
    </vehicle>
    <vehicle id="429" type="car" depart="343.20" departLane="best" departSpeed="max">
        <route edges="-gneE47 -gneE44 -gneE7 -gneE5 -gneE29"/>
    </vehicle>
    <vehicle id="431" type="car" depart="344.80" departLane="best" departSpeed="max">
        <route edges="-gneE48 -gneE45 -gneE44 gneE8"/>
    </vehicle>
    <vehicle id="433" type="car" depart="346.40" departLane="best" departSpeed="max">
        <route edges="gneE25 gneE4 gneE5 gneE7 gneE8"/>
    </vehicle>
    <vehicle id="435" type="car" depart="348.00" departLane="best" departSpeed="max">
        <route edges="-gneE8 -gneE7 gneE39 gneE13 -gneE44 gneE8"/>
    </vehicle>
    <vehicle id="436" type="car" depart="348.80" departLane="best" departSpeed="max">
        <route edges="gneE24"/>
    </vehicle>
    <vehicle id="441" type="car" depart="352.80" departLane="best" departSpeed="max">
        <route edges="gneE15 -gneE23 -gneE9"/>
    </vehicle>
    <vehicle id="442" type="car" depart="353.60" departLane="best" departSpeed="max">
        <route edges="gneE15"/>
    </vehicle>
    <vehicle id="444" type="car" depart="355.20" departLane="best" departSpeed="max">
        <route edges="gneE15 -gneE23 -gneE9"/>
    </vehicle>
    <vehicle id="455" type="car" depart="364.00" departLane="best" departSpeed="max">
        <route edges="gneE9 gneE23 -gneE15"/>
    </vehicle>
    <vehicle id="457" type="car" depart="365.60" departLane="best" departSpeed="max">
        <route edges="-gneE48 -gneE45 -gneE44 -gneE43"/>
    </vehicle>
    <vehicle id="459" type="car" depart="367.20" departLane="best" departSpeed="max">
        <route edges="gneE15 gneE16 gneE17 gneE18 gneE41"/>
    </vehicle>
    <vehicle id="461" type="car" depart="368.80" departLane="best" departSpeed="max">
        <route edges="-gneE32 -gneE31 gneE12 gneE13 gneE47"/>
    </vehicle>
    <vehicle id="474" type="car" depart="379.20" departLane="best" departSpeed="max">
        <route edges="-gneE41 -gneE40 -gneE39 gneE7 -gneE43"/>
    </vehicle>
    <vehicle id="475" type="car" depart="380.00" departLane="best" departSpeed="max">
        <route edges="gneE15 gneE24"/>
    </vehicle>
    <vehicle id="476" type="car" depart="380.80" departLane="best" departSpeed="max">
        <route edges="gneE2 gneE3 gneE26 -gneE10 -gneE22 -gneE2"/>
    </vehicle>
    <vehicle id="479" type="car" depart="383.20" departLane="best" departSpeed="max">
        <route edges="gneE9 gneE10 -gneE26 gneE4 gneE5 gneE7 gneE8"/>
    </vehicle>
    <vehicle id="480" type="car" depart="384.00" departLane="best" departSpeed="max">
        <route edges="gneE38 -gneE5 -gneE4 -gneE3 -gneE21"/>
    </vehicle>
    <vehicle id="482" type="car" depart="385.60" departLane="best" departSpeed="max">
        <route edges="-gneE21"/>
    </vehicle>
    <vehicle id="483" type="car" depart="386.40" departLane="best" departSpeed="max">
        <route edges="-gneE9"/>
    </vehicle>
    <vehicle id="485" type="car" depart="388.00" departLane="best" departSpeed="max">
        <route edges="-gneE47"/>
    </vehicle>
    <vehicle id="486" type="car" depart="388.80" departLane="best" departSpeed="max">
        <route edges="gneE2 gneE3 gneE26 -gneE10 -gneE22 -gneE2"/>
    </vehicle>
    <vehicle id="488" type="car" depart="390.40" departLane="best" departSpeed="max">
        <route edges="gneE9 gneE10 gneE11 gneE12 gneE13 gneE47"/>
    </vehicle>
    <vehicle id="489" type="car" depart="391.20" departLane="best" departSpeed="max">
        <route edges="gneE15 gneE16 -gneE27 -gneE26 gneE4 gneE5 gneE7 gneE8"/>
    </vehicle>
    <vehicle id="491" type="car" depart="392.80" departLane="best" departSpeed="max">
        <route edges="-gneE48 -gneE45 -gneE44 gneE8"/>
    </vehicle>
    <vehicle id="495" type="car" depart="396.00" departLane="best" departSpeed="max">
        <route edges="-gneE48 -gneE45 -gneE44 gneE8"/>
    </vehicle>
    <vehicle id="496" type="car" depart="396.80" departLane="best" departSpeed="max">
        <route edges="-gneE47 -gneE13 -gneE39 gneE7 gneE44 gneE47"/>
    </vehicle>
    <vehicle id="497" type="car" depart="397.60" departLane="best" departSpeed="max">
        <route edges="gneE15 -gneE23 -gneE9"/>
    </vehicle>
    <vehicle id="498" type="car" depart="398.40" departLane="best" departSpeed="max">
        <route edges="gneE9 gneE23 gneE24"/>
    </vehicle>
    <vehicle id="499" type="car" depart="399.20" departLane="best" departSpeed="max">
        <route edges="-gneE47 -gneE13 -gneE12 -gneE11 -gneE10 -gneE9"/>
    </vehicle>
    <vehicle id="501" type="car" depart="400.80" departLane="best" departSpeed="max">
        <route edges="gneE9 gneE10 gneE11 gneE12 gneE13 gneE45 gneE48"/>
    </vehicle>
    <vehicle id="504" type="car" depart="403.20" departLane="best" departSpeed="max">
        <route edges="-gneE47 -gneE44 gneE8"/>
    </vehicle>
    <vehicle id="514" type="car" depart="411.20" departLane="best" departSpeed="max">
        <route edges="gneE43 gneE8"/>
    </vehicle>
    <vehicle id="517" type="car" depart="413.60" departLane="best" departSpeed="max">
        <route edges="gneE9 gneE10 -gneE26 gneE4 gneE5 gneE7 gneE8"/>
    </vehicle>
    <vehicle id="531" type="car" depart="424.80" departLane="best" departSpeed="max">
        <route edges="gneE9 gneE23 -gneE15"/>
    </vehicle>
    <vehicle id="535" type="car" depart="428.00" departLane="best" departSpeed="max">
        <route edges="gneE15 -gneE23 -gneE22 -gneE2"/>
    </vehicle>
    <vehicle id="539" type="car" depart="431.20" departLane="best" departSpeed="max">
        <route edges="gneE15 -gneE23 -gneE22 -gneE2"/>
    </vehicle>
    <vehicle id="541" type="car" depart="432.80" departLane="best" departSpeed="max">
        <route edges="-gneE46 -gneE45 -gneE44 -gneE7 -gneE5 -gneE4 -gneE3 -gneE2"/>
    </vehicle>
    <vehicle id="544" type="car" depart="435.20" departLane="best" departSpeed="max">
        <route edges="gneE25 gneE4 gneE5 gneE7 gneE8"/>
    </vehicle>
    <vehicle id="549" type="car" depart="439.20" departLane="best" departSpeed="max">
        <route edges="-gneE46 -gneE45 -gneE13 -gneE12 -gneE11 -gneE10 -gneE9"/>
    </vehicle>
    <vehicle id="552" type="car" depart="441.60" departLane="best" departSpeed="max">
        <route edges="-gneE48"/>
    </vehicle>
    <vehicle id="554" type="car" depart="443.20" departLane="best" departSpeed="max">
        <route edges="gneE15 gneE16 -gneE27 -gneE26 gneE4 gneE5 gneE7 gneE8"/>
    </vehicle>
    <vehicle id="556" type="car" depart="444.80" departLane="best" departSpeed="max">
        <route edges="gneE43 -gneE7 -gneE5 -gneE4 -gneE3 -gneE2"/>
    </vehicle>
    <vehicle id="560" type="car" depart="448.00" departLane="best" departSpeed="max">
        <route edges="-gneE28 -gneE16 -gneE15"/>
    </vehicle>
    <vehicle id="563" type="car" depart="450.40" departLane="best" departSpeed="max">
        <route edges="gneE25 gneE26 -gneE10 -gneE9"/>
    </vehicle>
    <vehicle id="566" type="car" depart="452.80" departLane="best" departSpeed="max">
        <route edges="gneE43 -gneE7 -gneE5 -gneE4 gneE26 -gneE10 -gneE9"/>
    </vehicle>
    <vehicle id="568" type="car" depart="454.40" departLane="best" departSpeed="max">
        <route edges="gneE38 gneE7 gneE8"/>
    </vehicle>
    <vehicle id="576" type="car" depart="460.80" departLane="best" departSpeed="max">
        <route edges="-gneE8 -gneE7 -gneE38"/>
    </vehicle>
    <vehicle id="582" type="car" depart="465.60" departLane="best" departSpeed="max">
        <route edges="gneE21 gneE3 gneE4 gneE5 gneE7 -gneE43"/>
    </vehicle>
    <vehicle id="589" type="car" depart="471.20" departLane="best" departSpeed="max">
        <route edges="-gneE46 -gneE45 -gneE13 -gneE12 -gneE11 -gneE10 -gneE9"/>
    </vehicle>
    <vehicle id="591" type="car" depart="472.80" departLane="best" departSpeed="max">
        <route edges="gneE2 gneE3 gneE4 -gneE29"/>
    </vehicle>
    <vehicle id="592" type="car" depart="473.60" departLane="best" departSpeed="max">
        <route edges="gneE9 gneE10 -gneE26 -gneE3 gneE22 -gneE9"/>
    </vehicle>
    <vehicle id="599" type="car" depart="479.20" departLane="best" departSpeed="max">
        <route edges="-gneE8 -gneE7 -gneE5 -gneE4 gneE26 gneE27 -gneE16 -gneE15"/>
    </vehicle>
    <vehicle id="601" type="car" depart="480.80" departLane="best" departSpeed="max">
        <route edges="-gneE8 -gneE7 -gneE5 -gneE4 gneE26 -gneE10 -gneE9"/>
    </vehicle>
    <vehicle id="608" type="car" depart="486.40" departLane="best" departSpeed="max">
        <route edges="gneE2 gneE3 gneE4 gneE5 gneE7 gneE44 gneE45 gneE46"/>
    </vehicle>
    <vehicle id="609" type="car" depart="487.20" departLane="best" departSpeed="max">
        <route edges="-gneE46 -gneE45 -gneE44 -gneE7 -gneE5 -gneE4 -gneE25"/>
    </vehicle>
    <vehicle id="610" type="car" depart="488.00" departLane="best" departSpeed="max">
        <route edges="-gneE46 gneE48"/>
    </vehicle>
    <vehicle id="616" type="car" depart="492.80" departLane="best" departSpeed="max">
        <route edges="-gneE28 -gneE27 gneE11 gneE12 gneE13 gneE47"/>
    </vehicle>
    <vehicle id="617" type="car" depart="493.60" departLane="best" departSpeed="max">
        <route edges="gneE15 gneE16 gneE17 gneE18 gneE19 gneE48"/>
    </vehicle>
    <vehicle id="621" type="car" depart="496.80" departLane="best" departSpeed="max">
        <route edges="gneE15 gneE16 gneE28"/>
    </vehicle>
    <vehicle id="624" type="car" depart="499.20" departLane="best" departSpeed="max">
        <route edges="gneE15 gneE16 gneE17 gneE18 gneE19 gneE48"/>
    </vehicle>
    <vehicle id="625" type="car" depart="500.00" departLane="best" departSpeed="max">
        <route edges="-gneE32 -gneE31 -gneE11 -gneE10 -gneE9"/>
    </vehicle>
    <vehicle id="627" type="car" depart="501.60" departLane="best" departSpeed="max">
        <route edges="gneE9 gneE10 -gneE26 -gneE25"/>
    </vehicle>
    <vehicle id="629" type="car" depart="503.20" departLane="best" departSpeed="max">
        <route edges="gneE2 gneE3 gneE4 gneE5 gneE7 gneE44 gneE47"/>
    </vehicle>
    <vehicle id="630" type="car" depart="504.00" departLane="best" departSpeed="max">
        <route edges="-gneE48 -gneE45 -gneE44 gneE8"/>
    </vehicle>
    <vehicle id="637" type="car" depart="509.60" departLane="best" departSpeed="max">
        <route edges="gneE9 gneE10 -gneE26 gneE4 gneE5 gneE7 gneE8"/>
    </vehicle>
    <vehicle id="639" type="car" depart="511.20" departLane="best" departSpeed="max">
        <route edges="gneE38 gneE7 gneE44 gneE47"/>
    </vehicle>
    <vehicle id="645" type="car" depart="516.00" departLane="best" departSpeed="max">
        <route edges="-gneE47 gneE45 gneE48"/>
    </vehicle>
    <vehicle id="649" type="car" depart="519.20" departLane="best" departSpeed="max">
        <route edges="-gneE8 -gneE7 -gneE5 -gneE4 gneE26 gneE27 gneE28"/>
    </vehicle>
    <vehicle id="653" type="car" depart="522.40" departLane="best" departSpeed="max">
        <route edges="-gneE47 -gneE13 gneE40 gneE41"/>
    </vehicle>
    <vehicle id="666" type="car" depart="532.80" departLane="best" departSpeed="max">
        <route edges="-gneE47 -gneE13 gneE40 gneE41"/>
    </vehicle>
    <vehicle id="673" type="car" depart="538.40" departLane="best" departSpeed="max">
        <route edges="-gneE8 -gneE7 -gneE5 -gneE4 gneE26 -gneE10 -gneE9"/>
    </vehicle>
    <vehicle id="677" type="car" depart="541.60" departLane="best" departSpeed="max">
        <route edges="-gneE24 gneE16 -gneE27 -gneE26 gneE4 gneE5 -gneE38"/>
    </vehicle>
    <vehicle id="683" type="car" depart="546.40" departLane="best" departSpeed="max">
        <route edges="-gneE24 gneE16 -gneE27 gneE11 gneE12 gneE13 gneE47"/>
    </vehicle>