<?xml version="1.0" encoding="UTF-8"?>

<configuration xmlns:xsi="http://www.w3.org/2001/XMLSchema-instance" xsi:noNamespaceSchemaLocation="http://sumo.dlr.de/xsd/sumoConfiguration.xsd">

    <input>
        <net-file value="env1.net.xml"/>
        <route-files value="cars.rou.xml"/>
    </input>

	<additional-files>
	    <additional-files value="env1.poly.xml,env1.det.double.xml"/>
	</additional-files>

    
    <time>
        <begin value="0"/>
        <end value="20000"/>
        <step-length value="0.1"/>
    </time>

    <!-- <processing>
        <ignore-route-errors value="true"/>
    </processing> -->

    <routing>
        <device.rerouting.adaptation-steps value="180"/>
    </routing>

    <report>
        <verbose value="true"/>
        <duration-log.statistics value="true"/>
        <!-- <no-step-log value="true"/> -->
    </report>

    <gui_only>
        <gui-settings-file value="osm.view.xml"/>
    </gui_only>

</configuration>