<?xml version="1.0" encoding="UTF-8"?>

<!-- generated on Thu 20 Dec 2018 14:16:11 ACDT by Netedit Version 0.32.0
<?xml version="1.0" encoding="UTF-8"?>

<configuration xmlns:xsi="http://www.w3.org/2001/XMLSchema-instance" xsi:noNamespaceSchemaLocation="http://sumo.dlr.de/xsd/netconvertConfiguration.xsd">

    <input>
        <sumo-net-file value="osm.net.xml"/>
    </input>

    <output>
        <output-file value="osm.net.xml"/>
        <output.street-names value="true"/>
    </output>

    <processing>
        <no-turnarounds value="true"/>
        <offset.disable-normalization value="true"/>
        <lefthand value="false"/>
        <junctions.corner-detail value="5"/>
        <rectangular-lane-cut value="false"/>
        <walkingareas value="false"/>
    </processing>

</configuration>
-->

<net version="0.27" junctionCornerDetail="5" xmlns:xsi="http://www.w3.org/2001/XMLSchema-instance" xsi:noNamespaceSchemaLocation="http://sumo.dlr.de/xsd/net_file.xsd">

    <location netOffset="-256401.51,-3457355.17" convBoundary="16781.94,7682.40,17392.21,8202.67" origBoundary="120.442586,31.225359,120.778246,31.405288" projParameter="+proj=utm +zone=51 +ellps=WGS84 +datum=WGS84 +units=m +no_defs"/>

    <type id="highway.bridleway" priority="1" numLanes="1" speed="2.78" allow="pedestrian" oneway="1" width="2.00"/>
    <type id="highway.bus_guideway" priority="1" numLanes="1" speed="27.78" allow="bus" oneway="1"/>
    <type id="highway.cycleway" priority="1" numLanes="1" speed="8.33" allow="bicycle" oneway="0" width="1.00"/>
    <type id="highway.footway" priority="1" numLanes="1" speed="2.78" allow="pedestrian" oneway="1" width="2.00"/>
    <type id="highway.ford" priority="1" numLanes="1" speed="2.78" allow="army" oneway="0"/>
    <type id="highway.living_street" priority="3" numLanes="1" speed="2.78" disallow="tram rail_urban rail rail_electric ship" oneway="0"/>
    <type id="highway.motorway" priority="13" numLanes="2" speed="44.44" allow="private emergency authority army vip passenger hov taxi bus coach delivery truck trailer motorcycle evehicle custom1 custom2" oneway="1"/>
    <type id="highway.motorway_link" priority="12" numLanes="1" speed="22.22" allow="private emergency authority army vip passenger hov taxi bus coach delivery truck trailer motorcycle evehicle custom1 custom2" oneway="1"/>
    <type id="highway.path" priority="1" numLanes="1" speed="2.78" allow="bicycle pedestrian" oneway="1" width="2.00"/>
    <type id="highway.pedestrian" priority="1" numLanes="1" speed="2.78" allow="pedestrian" oneway="1" width="2.00"/>
    <type id="highway.primary" priority="9" numLanes="2" speed="27.78" disallow="tram rail_urban rail rail_electric ship" oneway="0"/>
    <type id="highway.primary_link" priority="8" numLanes="1" speed="22.22" disallow="tram rail_urban rail rail_electric ship" oneway="0"/>
    <type id="highway.raceway" priority="14" numLanes="2" speed="83.33" allow="vip" oneway="0"/>
    <type id="highway.residential" priority="4" numLanes="1" speed="13.89" disallow="tram rail_urban rail rail_electric ship" oneway="0"/>
    <type id="highway.secondary" priority="7" numLanes="2" speed="27.78" disallow="tram rail_urban rail rail_electric ship" oneway="0"/>
    <type id="highway.secondary_link" priority="6" numLanes="1" speed="22.22" disallow="tram rail_urban rail rail_electric ship" oneway="0"/>
    <type id="highway.service" priority="2" numLanes="1" speed="5.56" allow="delivery bicycle pedestrian" oneway="0"/>
    <type id="highway.stairs" priority="1" numLanes="1" speed="1.39" allow="pedestrian" oneway="1" width="2.00"/>
    <type id="highway.step" priority="1" numLanes="1" speed="1.39" allow="pedestrian" oneway="1" width="2.00"/>
    <type id="highway.steps" priority="1" numLanes="1" speed="1.39" allow="pedestrian" oneway="1" width="2.00"/>
    <type id="highway.tertiary" priority="6" numLanes="1" speed="22.22" disallow="tram rail_urban rail rail_electric ship" oneway="0"/>
    <type id="highway.tertiary_link" priority="5" numLanes="1" speed="22.22" disallow="tram rail_urban rail rail_electric ship" oneway="0"/>
    <type id="highway.track" priority="1" numLanes="1" speed="5.56" disallow="tram rail_urban rail rail_electric ship" oneway="0"/>
    <type id="highway.trunk" priority="11" numLanes="2" speed="27.78" disallow="tram rail_urban rail rail_electric bicycle pedestrian ship" oneway="0"/>
    <type id="highway.trunk_link" priority="10" numLanes="1" speed="22.22" disallow="tram rail_urban rail rail_electric bicycle pedestrian ship" oneway="0"/>
    <type id="highway.unclassified" priority="5" numLanes="1" speed="13.89" disallow="tram rail_urban rail rail_electric ship" oneway="0"/>
    <type id="highway.unsurfaced" priority="1" numLanes="1" speed="8.33" disallow="tram rail_urban rail rail_electric ship" oneway="0"/>
    <type id="railway.light_rail" priority="15" numLanes="1" speed="27.78" allow="rail_urban" oneway="1"/>
    <type id="railway.preserved" priority="15" numLanes="1" speed="27.78" allow="rail" oneway="1"/>
    <type id="railway.rail" priority="15" numLanes="1" speed="83.33" allow="rail rail_electric" oneway="1"/>
    <type id="railway.subway" priority="15" numLanes="1" speed="27.78" allow="rail_urban" oneway="1"/>
    <type id="railway.tram" priority="15" numLanes="1" speed="13.89" allow="tram" oneway="1"/>

    <edge id=":4463418138_0" function="internal">
        <lane id=":4463418138_0_0" index="0" disallow="tram rail_urban rail rail_electric ship" speed="27.78" length="4.82" shape="16893.96,8202.07 16893.02,8203.22 16892.16,8203.55 16891.38,8203.06 16890.68,8201.75"/>
    </edge>
    <edge id=":5868813755_0" function="internal">
        <lane id=":5868813755_0_0" index="0" disallow="tram rail_urban rail rail_electric ship" speed="22.22" length="4.82" shape="17335.19,8111.49 17336.27,8112.52 17336.54,8113.40 17335.99,8114.15 17334.63,8114.75"/>
    </edge>
    <edge id=":cluster308_0" function="internal">
        <lane id=":cluster308_0_0" index="0" disallow="tram rail_urban rail rail_electric ship" speed="20.84" length="7.24" shape="17286.32,7860.64 17284.99,7860.84 17283.81,7861.75 17282.76,7863.36 17281.87,7865.67"/>
    </edge>
    <edge id=":cluster308_1" function="internal">
        <lane id=":cluster308_1_0" index="0" speed="13.89" length="19.64" shape="17286.32,7860.64 17266.76,7857.97"/>
        <lane id=":cluster308_1_1" index="1" speed="13.89" length="19.64" shape="17286.68,7857.36 17267.31,7854.72"/>
    </edge>
    <edge id=":cluster308_3" function="internal">
        <lane id=":cluster308_3_0" index="0" speed="13.89" length="19.26" shape="17268.40,7848.21 17287.40,7850.80"/>
        <lane id=":cluster308_3_1" index="1" speed="13.89" length="19.26" shape="17267.86,7851.47 17287.04,7854.08"/>
    </edge>
    <edge id=":cluster308_5" function="internal">
        <lane id=":cluster308_5_0" index="0" disallow="tram rail_urban rail rail_electric ship" speed="20.83" length="7.94" shape="17267.86,7851.47 17273.87,7853.19 17275.23,7854.19"/>
    </edge>
    <edge id=":cluster308_9" function="internal">
        <lane id=":cluster308_9_0" index="0" speed="20.83" length="12.12" shape="17275.23,7854.19 17277.68,7855.97 17279.29,7859.80 17278.71,7864.70"/>
    </edge>
    <edge id=":cluster308_6" function="internal">
        <lane id=":cluster308_6_0" index="0" speed="13.89" length="5.17" shape="17269.07,7861.71 17269.29,7860.28 17268.98,7859.18 17268.14,7858.41 17266.76,7857.97"/>
    </edge>
    <edge id=":cluster308_7" function="internal">
        <lane id=":cluster308_7_0" index="0" speed="13.89" length="23.43" shape="17269.07,7861.71 17271.65,7856.34 17275.57,7852.73 17280.81,7850.89 17287.40,7850.80"/>
    </edge>
    <edge id=":cluster308_8" function="internal">
        <lane id=":cluster308_8_0" index="0" speed="13.89" length="18.82" shape="17272.22,7862.69 17274.28,7858.44 17277.44,7855.59 17281.69,7854.13 17287.04,7854.08"/>
    </edge>
    <edge id=":cluster309_0" function="internal">
        <lane id=":cluster309_0_0" index="0" disallow="tram rail_urban rail rail_electric ship" speed="18.05" length="6.51" shape="17160.46,7840.11 17159.08,7840.18 17157.96,7840.92 17157.12,7842.33 17156.53,7844.39"/>
    </edge>
    <edge id=":cluster309_1" function="internal">
        <lane id=":cluster309_1_0" index="0" disallow="tram rail_urban rail rail_electric ship" speed="20.83" length="16.20" shape="17160.46,7840.11 17155.69,7839.56 17152.38,7839.57 17149.07,7839.56 17144.31,7838.97"/>
        <lane id=":cluster309_1_1" index="1" disallow="tram rail_urban rail rail_electric ship" speed="20.83" length="16.20" shape="17161.01,7836.85 17156.24,7836.31 17152.94,7836.31 17149.64,7836.31 17144.88,7835.72"/>
    </edge>
    <edge id=":cluster309_3" function="internal">
        <lane id=":cluster309_3_0" index="0" disallow="tram rail_urban rail rail_electric ship" speed="18.05" length="6.71" shape="17161.01,7836.85 17156.71,7835.51 17154.98,7834.13"/>
    </edge>
    <edge id=":cluster309_14" function="internal">
        <lane id=":cluster309_14_0" index="0" speed="18.05" length="9.78" shape="17154.98,7834.13 17153.74,7833.14 17152.10,7829.75 17151.79,7825.34"/>
    </edge>
    <edge id=":cluster309_4" function="internal">
        <lane id=":cluster309_4_0" index="0" speed="18.05" length="9.23" shape="17155.08,7825.57 17155.42,7827.20 17156.71,7828.54 17158.93,7829.59 17162.10,7830.34"/>
    </edge>
    <edge id=":cluster309_5" function="internal">
        <lane id=":cluster309_5_0" index="0" disallow="tram rail_urban rail rail_electric ship" speed="22.22" length="18.32" shape="17155.08,7825.57 17154.89,7829.26 17154.68,7833.18 17154.23,7837.85 17153.29,7843.79"/>
    </edge>
    <edge id=":cluster309_6" function="internal">
        <lane id=":cluster309_6_0" index="0" disallow="tram rail_urban rail rail_electric ship" speed="25.00" length="10.74" shape="17155.08,7825.57 17154.13,7830.64 17152.11,7834.02 17150.66,7834.81"/>
    </edge>
    <edge id=":cluster309_15" function="internal">
        <lane id=":cluster309_15_0" index="0" speed="25.00" length="6.00" shape="17150.66,7834.81 17149.03,7835.71 17144.88,7835.72"/>
    </edge>
    <edge id=":cluster309_7" function="internal">
        <lane id=":cluster309_7_0" index="0" disallow="tram rail_urban rail rail_electric ship" speed="18.05" length="6.83" shape="17146.30,7827.73 17148.62,7827.90 17150.30,7827.56 17151.36,7826.70 17151.79,7825.34"/>
    </edge>
    <edge id=":cluster309_8" function="internal">
        <lane id=":cluster309_8_0" index="0" speed="13.89" length="16.03" shape="17146.30,7827.73 17162.10,7830.34"/>
        <lane id=":cluster309_8_1" index="1" speed="13.89" length="16.03" shape="17145.73,7830.98 17161.55,7833.60"/>
    </edge>
    <edge id=":cluster309_10" function="internal">
        <lane id=":cluster309_10_0" index="0" disallow="tram rail_urban rail rail_electric ship" speed="18.05" length="7.66" shape="17145.73,7830.98 17149.82,7832.37 17152.19,7834.71"/>
    </edge>
    <edge id=":cluster309_16" function="internal">
        <lane id=":cluster309_16_0" index="0" speed="18.05" length="9.36" shape="17152.19,7834.71 17152.45,7834.97 17153.60,7838.77 17153.29,7843.79"/>
    </edge>
    <edge id=":cluster309_11" function="internal">
        <lane id=":cluster309_11_0" index="0" disallow="tram rail_urban rail rail_electric ship" speed="25.00" length="5.01" shape="17146.80,7842.58 17146.86,7841.20 17146.46,7840.15 17145.61,7839.40 17144.31,7838.97"/>
    </edge>
    <edge id=":cluster309_12" function="internal">
        <lane id=":cluster309_12_0" index="0" disallow="tram rail_urban rail rail_electric ship" speed="22.22" length="17.98" shape="17146.80,7842.58 17148.23,7836.86 17149.78,7832.52 17151.09,7828.90 17151.79,7825.34"/>
    </edge>
    <edge id=":cluster309_13" function="internal">
        <lane id=":cluster309_13_0" index="0" speed="18.05" length="6.96" shape="17150.05,7843.18 17151.55,7838.39 17152.72,7836.85"/>
    </edge>
    <edge id=":cluster309_17" function="internal">
        <lane id=":cluster309_17_0" index="0" speed="18.05" length="10.02" shape="17152.72,7836.85 17153.96,7835.20 17157.30,7833.60 17161.55,7833.60"/>
    </edge>
    <edge id=":cluster310_0" function="internal">
        <lane id=":cluster310_0_0" index="0" speed="20.84" length="5.65" shape="17049.80,7822.19 17048.41,7822.19 17047.34,7822.75 17046.60,7823.87 17046.19,7825.54"/>
    </edge>
    <edge id=":cluster310_1" function="internal">
        <lane id=":cluster310_1_0" index="0" disallow="tram rail_urban rail rail_electric ship" speed="27.78" length="16.34" shape="17049.80,7822.19 17045.04,7821.50 17041.75,7821.29 17038.44,7821.19 17033.63,7820.83"/>
        <lane id=":cluster310_1_1" index="1" disallow="tram rail_urban rail rail_electric ship" speed="27.78" length="16.34" shape="17050.33,7818.93 17045.51,7818.23 17042.18,7818.02 17038.83,7817.91 17033.97,7817.54"/>
    </edge>
    <edge id=":cluster310_3" function="internal">
        <lane id=":cluster310_3_0" index="0" speed="20.84" length="7.74" shape="17050.33,7818.93 17046.18,7817.37 17043.90,7814.98"/>
    </edge>
    <edge id=":cluster310_16" function="internal">
        <lane id=":cluster310_16_0" index="0" speed="20.84" length="11.21" shape="17043.90,7814.98 17043.36,7814.40 17041.88,7810.02 17041.74,7804.23"/>
    </edge>
    <edge id=":cluster310_4" function="internal">
        <lane id=":cluster310_4_0" index="0" speed="13.89" length="8.93" shape="17048.32,7804.77 17048.30,7807.84 17048.81,7810.12 17049.84,7811.61 17051.41,7812.30"/>
    </edge>
    <edge id=":cluster310_5" function="internal">
        <lane id=":cluster310_5_0" index="0" speed="13.89" length="20.80" shape="17048.32,7804.77 17046.19,7825.54"/>
        <lane id=":cluster310_5_1" index="1" speed="13.89" length="20.80" shape="17045.03,7804.50 17042.92,7825.11"/>
    </edge>
    <edge id=":cluster310_7" function="internal">
        <lane id=":cluster310_7_0" index="0" disallow="tram rail_urban rail rail_electric ship" speed="20.84" length="9.42" shape="17045.03,7804.50 17043.91,7810.59 17042.40,7813.44"/>
    </edge>
    <edge id=":cluster310_17" function="internal">
        <lane id=":cluster310_17_0" index="0" speed="20.84" length="10.00" shape="17042.40,7813.44 17041.69,7814.79 17038.38,7817.11 17033.97,7817.54"/>
    </edge>
    <edge id=":cluster310_8" function="internal">
        <lane id=":cluster310_8_0" index="0" speed="13.89" length="5.03" shape="17035.08,7806.76 17036.46,7806.71 17037.48,7806.23 17038.14,7805.31 17038.45,7803.96"/>
    </edge>
    <edge id=":cluster310_9" function="internal">
        <lane id=":cluster310_9_0" index="0" speed="13.89" length="17.26" shape="17035.08,7806.76 17040.05,7807.82 17043.27,7809.36 17046.47,7810.98 17051.41,7812.30"/>
        <lane id=":cluster310_9_1" index="1" speed="13.89" length="17.26" shape="17034.74,7810.04 17039.65,7811.10 17042.83,7812.63 17046.00,7814.25 17050.88,7815.56"/>
    </edge>
    <edge id=":cluster310_11" function="internal">
        <lane id=":cluster310_11_0" index="0" speed="13.89" length="7.40" shape="17034.40,7813.33 17038.65,7814.47 17040.96,7816.38"/>
    </edge>
    <edge id=":cluster310_18" function="internal">
        <lane id=":cluster310_18_0" index="0" speed="13.89" length="9.26" shape="17040.96,7816.38 17041.48,7816.81 17042.90,7820.36 17042.92,7825.11"/>
    </edge>
    <edge id=":cluster310_12" function="internal">
        <lane id=":cluster310_12_0" index="0" disallow="tram rail_urban rail rail_electric ship" speed="20.84" length="5.05" shape="17036.37,7824.27 17036.35,7822.88 17035.89,7821.85 17034.98,7821.16 17033.63,7820.83"/>
    </edge>
    <edge id=":cluster310_13" function="internal">
        <lane id=":cluster310_13_0" index="0" speed="13.89" length="20.49" shape="17036.37,7824.27 17038.45,7803.96"/>
        <lane id=":cluster310_13_1" index="1" speed="13.89" length="20.49" shape="17039.64,7824.69 17041.74,7804.23"/>
    </edge>
    <edge id=":cluster310_15" function="internal">
        <lane id=":cluster310_15_0" index="0" speed="13.89" length="6.61" shape="17039.64,7824.69 17040.87,7820.09 17041.98,7818.61"/>
    </edge>
    <edge id=":cluster310_19" function="internal">
        <lane id=":cluster310_19_0" index="0" speed="13.89" length="10.02" shape="17041.98,7818.61 17043.15,7817.04 17046.48,7815.53 17050.88,7815.56"/>
    </edge>
    <edge id=":cluster311_0" function="internal">
        <lane id=":cluster311_0_0" index="0" disallow="tram rail_urban rail rail_electric ship" speed="27.78" length="4.95" shape="16944.02,7811.60 16942.67,7811.65 16941.64,7812.12 16940.93,7812.99 16940.55,7814.29"/>
    </edge>
    <edge id=":cluster311_1" function="internal">
        <lane id=":cluster311_1_0" index="0" disallow="tram rail_urban rail rail_electric ship" speed="27.78" length="10.12" shape="16944.37,7808.32 16941.61,7808.42 16939.51,7809.37 16938.07,7811.16 16937.29,7813.80"/>
    </edge>
    <edge id=":cluster311_2" function="internal">
        <lane id=":cluster311_2_0" index="0" disallow="tram rail_urban rail rail_electric ship" speed="25.00" length="8.45" shape="16944.37,7808.32 16940.38,7806.77 16937.93,7803.41"/>
    </edge>
    <edge id=":cluster311_14" function="internal">
        <lane id=":cluster311_14_0" index="0" speed="25.00" length="14.38" shape="16937.93,7803.41 16937.68,7803.08 16936.29,7797.25 16936.19,7789.27"/>
    </edge>
    <edge id=":cluster311_3" function="internal">
        <lane id=":cluster311_3_0" index="0" speed="18.05" length="8.61" shape="16942.78,7789.67 16942.79,7792.76 16943.27,7795.02 16944.21,7796.44 16945.60,7797.03"/>
    </edge>
    <edge id=":cluster311_4" function="internal">
        <lane id=":cluster311_4_0" index="0" disallow="tram rail_urban rail rail_electric ship" speed="25.00" length="24.57" shape="16942.78,7789.67 16940.55,7814.29"/>
        <lane id=":cluster311_4_1" index="1" disallow="tram rail_urban rail rail_electric ship" speed="25.00" length="24.57" shape="16939.49,7789.47 16937.29,7813.80"/>
    </edge>
    <edge id=":cluster311_6" function="internal">
        <lane id=":cluster311_6_0" index="0" disallow="tram rail_urban rail rail_electric ship" speed="25.00" length="5.10" shape="16929.49,7791.83 16930.91,7791.84 16931.95,7791.38 16932.61,7790.45 16932.90,7789.07"/>
    </edge>
    <edge id=":cluster311_7" function="internal">
        <lane id=":cluster311_7_0" index="0" speed="20.84" length="17.14" shape="16929.49,7791.83 16934.36,7793.04 16937.53,7794.55 16940.71,7796.01 16945.60,7797.03"/>
        <lane id=":cluster311_7_1" index="1" speed="20.84" length="17.14" shape="16929.01,7795.10 16933.92,7796.31 16937.11,7797.82 16940.32,7799.28 16945.25,7800.31"/>
        <lane id=":cluster311_7_2" index="2" speed="20.84" length="17.14" shape="16928.53,7798.36 16933.47,7799.58 16936.69,7801.10 16939.93,7802.56 16944.89,7803.59"/>
    </edge>
    <edge id=":cluster311_10" function="internal">
        <lane id=":cluster311_10_0" index="0" disallow="tram rail_urban rail rail_electric ship" speed="27.78" length="13.20" shape="16928.05,7801.63 16932.68,7802.98 16935.76,7805.46 16937.30,7809.07 16937.30,7809.57"/>
    </edge>
    <edge id=":cluster311_15" function="internal">
        <lane id=":cluster311_15_0" index="0" speed="27.78" length="4.23" shape="16937.30,7809.57 16937.29,7813.80"/>
    </edge>
    <edge id=":cluster311_11" function="internal">
        <lane id=":cluster311_11_0" index="0" disallow="tram rail_urban rail rail_electric ship" speed="25.00" length="24.00" shape="16930.76,7812.83 16932.90,7789.07"/>
        <lane id=":cluster311_11_1" index="1" disallow="tram rail_urban rail rail_electric ship" speed="25.00" length="24.00" shape="16934.02,7813.32 16936.19,7789.27"/>
    </edge>
    <edge id=":cluster311_13" function="internal">
        <lane id=":cluster311_13_0" index="0" speed="20.84" length="6.48" shape="16934.02,7813.32 16935.30,7808.68 16936.27,7807.31"/>
    </edge>
    <edge id=":cluster311_16" function="internal">
        <lane id=":cluster311_16_0" index="0" speed="20.84" length="9.98" shape="16936.27,7807.31 16937.53,7805.52 16940.73,7803.82 16944.89,7803.59"/>
    </edge>
    <edge id=":cluster315_0" function="internal">
        <lane id=":cluster315_0_0" index="0" speed="20.83" length="11.10" shape="17244.44,7998.96 17241.45,7998.86 17239.11,7999.76 17237.44,8001.66 17236.42,8004.56"/>
    </edge>
    <edge id=":cluster315_1" function="internal">
        <lane id=":cluster315_1_0" index="0" disallow="tram rail_urban rail rail_electric ship" speed="27.78" length="19.62" shape="17244.44,7998.96 17225.10,7995.67"/>
    </edge>
    <edge id=":cluster315_2" function="internal">
        <lane id=":cluster315_2_0" index="0" speed="20.84" length="12.64" shape="17244.44,7998.96 17238.79,7997.39 17235.12,7995.06 17233.96,7992.93"/>
    </edge>
    <edge id=":cluster315_14" function="internal">
        <lane id=":cluster315_14_0" index="0" speed="20.84" length="4.96" shape="17233.96,7992.93 17233.44,7991.97 17233.74,7988.11"/>
    </edge>
    <edge id=":cluster315_3" function="internal">
        <lane id=":cluster315_3_0" index="0" disallow="tram rail_urban rail rail_electric ship" speed="27.78" length="5.99" shape="17243.05,7990.97 17242.69,7992.82 17242.90,7994.23 17243.68,7995.19 17245.02,7995.71"/>
    </edge>
    <edge id=":cluster315_4" function="internal">
        <lane id=":cluster315_4_0" index="0" speed="20.83" length="15.39" shape="17243.05,7990.97 17241.28,7995.10 17239.46,7997.69 17237.77,8000.32 17236.42,8004.56"/>
        <lane id=":cluster315_4_1" index="1" speed="20.83" length="15.39" shape="17239.89,7990.00 17238.10,7994.22 17236.25,7996.88 17234.56,7999.58 17233.19,8003.91"/>
    </edge>
    <edge id=":cluster315_6" function="internal">
        <lane id=":cluster315_6_0" index="0" disallow="tram rail_urban rail rail_electric ship" speed="27.78" length="17.78" shape="17239.89,7990.00 17237.95,7993.66 17234.83,7995.82 17230.55,7996.49 17225.10,7995.67"/>
    </edge>
    <edge id=":cluster315_7" function="internal">
        <lane id=":cluster315_7_0" index="0" speed="20.84" length="4.95" shape="17226.76,7989.28 17228.10,7989.43 17229.19,7989.13 17230.01,7988.37 17230.59,7987.15"/>
    </edge>
    <edge id=":cluster315_8" function="internal">
        <lane id=":cluster315_8_0" index="0" disallow="tram rail_urban rail rail_electric ship" speed="27.78" length="19.36" shape="17226.76,7989.28 17245.02,7995.71"/>
    </edge>
    <edge id=":cluster315_9" function="internal">
        <lane id=":cluster315_9_0" index="0" speed="20.83" length="5.31" shape="17225.93,7992.47 17229.79,7994.08 17230.60,7994.87"/>
    </edge>
    <edge id=":cluster315_15" function="internal">
        <lane id=":cluster315_15_0" index="0" speed="20.83" length="9.95" shape="17230.60,7994.87 17232.28,7996.52 17233.42,7999.79 17233.19,8003.91"/>
    </edge>
    <edge id=":cluster315_10" function="internal">
        <lane id=":cluster315_10_0" index="0" disallow="tram rail_urban rail rail_electric ship" speed="20.83" length="5.04" shape="17226.72,8002.61 17226.79,8001.27 17226.40,8000.19 17225.56,7999.39 17224.27,7998.86"/>
    </edge>
    <edge id=":cluster315_11" function="internal">
        <lane id=":cluster315_11_0" index="0" speed="13.89" length="15.79" shape="17226.72,8002.61 17227.66,7997.97 17228.36,7994.80 17229.22,7991.68 17230.59,7987.15"/>
        <lane id=":cluster315_11_1" index="1" speed="13.89" length="15.79" shape="17229.95,8003.26 17230.87,7998.71 17231.57,7995.61 17232.40,7992.55 17233.74,7988.11"/>
    </edge>
    <edge id=":cluster315_13" function="internal">
        <lane id=":cluster315_13_0" index="0" disallow="tram rail_urban rail rail_electric ship" speed="20.83" length="19.03" shape="17229.95,8003.26 17231.64,7999.08 17234.71,7996.43 17239.17,7995.31 17245.02,7995.71"/>
    </edge>
    <edge id=":cluster316_0" function="internal">
        <lane id=":cluster316_0_0" index="0" disallow="tram rail_urban rail rail_electric ship" speed="25.00" length="5.03" shape="17135.01,7975.60 17133.64,7975.45 17132.55,7975.77 17131.76,7976.58 17131.26,7977.87"/>
    </edge>
    <edge id=":cluster316_1" function="internal">
        <lane id=":cluster316_1_0" index="0" disallow="tram rail_urban rail rail_electric ship" speed="27.78" length="16.51" shape="17135.01,7975.60 17119.02,7971.64"/>
        <lane id=":cluster316_1_1" index="1" disallow="tram rail_urban rail rail_electric ship" speed="27.78" length="16.51" shape="17135.84,7972.41 17119.78,7968.43"/>
    </edge>
    <edge id=":cluster316_3" function="internal">
        <lane id=":cluster316_3_0" index="0" disallow="tram rail_urban rail rail_electric ship" speed="25.00" length="6.37" shape="17135.84,7972.41 17131.82,7970.73 17130.40,7969.31"/>
    </edge>
    <edge id=":cluster316_16" function="internal">
        <lane id=":cluster316_16_0" index="0" speed="25.00" length="9.79" shape="17130.40,7969.31 17129.21,7968.13 17128.01,7964.63 17128.21,7960.21"/>
    </edge>
    <edge id=":cluster316_4" function="internal">
        <lane id=":cluster316_4_0" index="0" disallow="tram rail_urban rail rail_electric ship" speed="25.00" length="6.05" shape="17134.70,7961.43 17134.62,7963.10 17135.06,7964.42 17136.02,7965.39 17137.51,7966.02"/>
    </edge>
    <edge id=":cluster316_5" function="internal">
        <lane id=":cluster316_5_0" index="0" disallow="tram rail_urban rail rail_electric ship" speed="22.22" length="16.73" shape="17134.70,7961.43 17131.26,7977.87"/>
        <lane id=":cluster316_5_1" index="1" disallow="tram rail_urban rail rail_electric ship" speed="22.22" length="16.73" shape="17131.46,7960.82 17128.04,7977.12"/>
    </edge>
    <edge id=":cluster316_7" function="internal">
        <lane id=":cluster316_7_0" index="0" disallow="tram rail_urban rail rail_electric ship" speed="25.00" length="6.73" shape="17131.46,7960.82 17130.03,7965.02 17128.48,7966.72"/>
    </edge>
    <edge id=":cluster316_17" function="internal">
        <lane id=":cluster316_17_0" index="0" speed="25.00" length="9.33" shape="17128.48,7966.72 17127.61,7967.68 17124.19,7968.82 17119.78,7968.43"/>
    </edge>
    <edge id=":cluster316_8" function="internal">
        <lane id=":cluster316_8_0" index="0" disallow="tram rail_urban rail rail_electric ship" speed="25.00" length="5.06" shape="17121.29,7962.00 17122.68,7962.13 17123.76,7961.77 17124.52,7960.93 17124.97,7959.61"/>
    </edge>
    <edge id=":cluster316_9" function="internal">
        <lane id=":cluster316_9_0" index="0" disallow="tram rail_urban rail rail_electric ship" speed="27.78" length="16.67" shape="17121.29,7962.00 17137.51,7966.02"/>
        <lane id=":cluster316_9_1" index="1" disallow="tram rail_urban rail rail_electric ship" speed="27.78" length="16.67" shape="17120.54,7965.22 17136.67,7969.22"/>
    </edge>
    <edge id=":cluster316_11" function="internal">
        <lane id=":cluster316_11_0" index="0" disallow="tram rail_urban rail rail_electric ship" speed="25.00" length="6.70" shape="17120.54,7965.22 17124.66,7966.82 17126.30,7968.40"/>
    </edge>
    <edge id=":cluster316_18" function="internal">
        <lane id=":cluster316_18_0" index="0" speed="25.00" length="9.34" shape="17126.30,7968.40 17127.28,7969.34 17128.41,7972.78 17128.04,7977.12"/>
    </edge>
    <edge id=":cluster316_12" function="internal">
        <lane id=":cluster316_12_0" index="0" disallow="tram rail_urban rail rail_electric ship" speed="25.00" length="5.42" shape="17121.61,7975.63 17121.73,7974.18 17121.34,7973.03 17120.44,7972.18 17119.02,7971.64"/>
    </edge>
    <edge id=":cluster316_13" function="internal">
        <lane id=":cluster316_13_0" index="0" disallow="tram rail_urban rail rail_electric ship" speed="22.22" length="16.44" shape="17121.61,7975.63 17124.97,7959.61"/>
        <lane id=":cluster316_13_1" index="1" disallow="tram rail_urban rail rail_electric ship" speed="22.22" length="16.44" shape="17124.83,7976.38 17128.21,7960.21"/>
    </edge>
    <edge id=":cluster316_15" function="internal">
        <lane id=":cluster316_15_0" index="0" disallow="tram rail_urban rail rail_electric ship" speed="25.00" length="6.19" shape="17124.83,7976.38 17126.41,7972.31 17127.69,7971.00"/>
    </edge>
    <edge id=":cluster316_19" function="internal">
        <lane id=":cluster316_19_0" index="0" speed="25.00" length="9.69" shape="17127.69,7971.00 17128.91,7969.76 17132.34,7968.73 17136.67,7969.22"/>
    </edge>
    <edge id=":cluster317_0" function="internal">
        <lane id=":cluster317_0_0" index="0" speed="20.84" length="5.13" shape="17033.23,7951.43 17031.80,7951.31 17030.73,7951.68 17030.00,7952.56 17029.62,7953.93"/>
    </edge>
    <edge id=":cluster317_1" function="internal">
        <lane id=":cluster317_1_0" index="0" disallow="tram rail_urban rail rail_electric ship" speed="27.78" length="17.53" shape="17033.23,7951.43 17016.20,7947.29"/>
        <lane id=":cluster317_1_1" index="1" disallow="tram rail_urban rail rail_electric ship" speed="27.78" length="17.53" shape="17033.98,7948.22 17016.95,7944.08"/>
    </edge>
    <edge id=":cluster317_3" function="internal">
        <lane id=":cluster317_3_0" index="0" speed="20.84" length="6.84" shape="17033.98,7948.22 17029.69,7946.55 17028.05,7945.03"/>
    </edge>
    <edge id=":cluster317_4" function="internal">
        <lane id=":cluster317_4_0" index="0" disallow="tram rail_urban rail rail_electric ship" speed="27.78" length="2.41" shape="17033.98,7948.22 17032.97,7947.13 17032.75,7946.24"/>
    </edge>
    <edge id=":cluster317_17" function="internal">
        <lane id=":cluster317_17_0" index="0" speed="20.84" length="10.28" shape="17028.05,7945.03 17026.82,7943.88 17025.36,7940.22 17025.31,7935.57"/>
    </edge>
    <edge id=":cluster317_18" function="internal">
        <lane id=":cluster317_18_0" index="0" speed="27.78" length="2.41" shape="17032.75,7946.24 17033.35,7945.53 17034.74,7945.01"/>
    </edge>
    <edge id=":cluster317_5" function="internal">