<?xml version="1.0" encoding="UTF-8"?>

<!-- generated on Thu 27 Dec 2018 00:33:04 ACDT by Netedit Version 0.32.0
<?xml version="1.0" encoding="UTF-8"?>

<configuration xmlns:xsi="http://www.w3.org/2001/XMLSchema-instance" xsi:noNamespaceSchemaLocation="http://sumo.dlr.de/xsd/netconvertConfiguration.xsd">

    <input>
        <sumo-net-file value="Manhattan.net.xml"/>
    </input>

    <output>
        <output-file value="Manhattan.net.xml"/>
        <output.street-names value="true"/>
    </output>

    <processing>
        <no-turnarounds value="true"/>
        <offset.disable-normalization value="true"/>
        <lefthand value="false"/>
        <junctions.corner-detail value="0"/>
        <rectangular-lane-cut value="false"/>
        <walkingareas value="false"/>
    </processing>

</configuration>
-->

<net version="0.27" xmlns:xsi="http://www.w3.org/2001/XMLSchema-instance" xsi:noNamespaceSchemaLocation="http://sumo.dlr.de/xsd/net_file.xsd">

    <location netOffset="-584325.77,-4508126.03" convBoundary="0.00,0.00,2338.67,8199.33" origBoundary="-74.001559,40.719743,-73.962986,40.793354" projParameter="+proj=utm +zone=18 +ellps=WGS84 +datum=WGS84 +units=m +no_defs"/>

    <type id="highway.bridleway" priority="1" numLanes="1" speed="2.78" allow="pedestrian" oneway="1" width="2.00"/>
    <type id="highway.bus_guideway" priority="1" numLanes="1" speed="8.33" allow="bus" oneway="1"/>
    <type id="highway.cycleway" priority="1" numLanes="1" speed="5.56" allow="bicycle" oneway="0" width="1.00"/>
    <type id="highway.footway" priority="1" numLanes="1" speed="2.78" allow="pedestrian" oneway="1" width="2.00"/>
    <type id="highway.ford" priority="1" numLanes="1" speed="2.78" allow="army" oneway="0"/>
    <type id="highway.living_street" priority="3" numLanes="1" speed="2.78" disallow="tram rail_urban rail rail_electric ship" oneway="0"/>
    <type id="highway.motorway" priority="13" numLanes="2" speed="44.44" allow="private emergency authority army vip passenger hov taxi bus coach delivery truck trailer motorcycle evehicle custom1 custom2" oneway="1"/>
    <type id="highway.motorway_link" priority="12" numLanes="1" speed="22.22" allow="private emergency authority army vip passenger hov taxi bus coach delivery truck trailer motorcycle evehicle custom1 custom2" oneway="1"/>
    <type id="highway.path" priority="1" numLanes="1" speed="2.78" allow="bicycle pedestrian" oneway="1" width="2.00"/>
    <type id="highway.pedestrian" priority="1" numLanes="1" speed="2.78" allow="pedestrian" oneway="1" width="2.00"/>
    <type id="highway.primary" priority="9" numLanes="2" speed="27.78" disallow="tram rail_urban rail rail_electric ship" oneway="0"/>
    <type id="highway.primary_link" priority="8" numLanes="1" speed="22.22" disallow="tram rail_urban rail rail_electric ship" oneway="0"/>
    <type id="highway.raceway" priority="14" numLanes="2" speed="83.33" allow="vip" oneway="0"/>
    <type id="highway.residential" priority="4" numLanes="1" speed="13.89" disallow="tram rail_urban rail rail_electric ship" oneway="0"/>
    <type id="highway.secondary" priority="7" numLanes="2" speed="27.78" disallow="tram rail_urban rail rail_electric ship" oneway="0"/>
    <type id="highway.secondary_link" priority="6" numLanes="1" speed="22.22" disallow="tram rail_urban rail rail_electric ship" oneway="0"/>
    <type id="highway.service" priority="2" numLanes="1" speed="5.56" allow="delivery bicycle pedestrian" oneway="0"/>
    <type id="highway.services" priority="1" numLanes="1" speed="8.33" disallow="tram rail_urban rail rail_electric ship" oneway="0"/>
    <type id="highway.stairs" priority="1" numLanes="1" speed="1.39" allow="pedestrian" oneway="1" width="2.00"/>
    <type id="highway.step" priority="1" numLanes="1" speed="1.39" allow="pedestrian" oneway="1" width="2.00"/>
    <type id="highway.steps" priority="1" numLanes="1" speed="1.39" allow="pedestrian" oneway="1" width="2.00"/>
    <type id="highway.tertiary" priority="6" numLanes="1" speed="22.22" disallow="tram rail_urban rail rail_electric ship" oneway="0"/>
    <type id="highway.tertiary_link" priority="5" numLanes="1" speed="22.22" disallow="tram rail_urban rail rail_electric ship" oneway="0"/>
    <type id="highway.track" priority="1" numLanes="1" speed="5.56" disallow="tram rail_urban rail rail_electric ship" oneway="0"/>
    <type id="highway.trunk" priority="11" numLanes="2" speed="27.78" disallow="tram rail_urban rail rail_electric bicycle pedestrian ship" oneway="0"/>
    <type id="highway.trunk_link" priority="10" numLanes="1" speed="22.22" disallow="tram rail_urban rail rail_electric bicycle pedestrian ship" oneway="0"/>
    <type id="highway.unclassified" priority="5" numLanes="1" speed="13.89" disallow="tram rail_urban rail rail_electric ship" oneway="0"/>
    <type id="highway.unsurfaced" priority="1" numLanes="1" speed="8.33" disallow="tram rail_urban rail rail_electric ship" oneway="0"/>
    <type id="railway.light_rail" priority="15" numLanes="1" speed="27.78" allow="rail_urban" oneway="1"/>
    <type id="railway.preserved" priority="15" numLanes="1" speed="27.78" allow="rail" oneway="1"/>
    <type id="railway.rail" priority="15" numLanes="1" speed="83.33" allow="rail rail_electric" oneway="1"/>
    <type id="railway.subway" priority="15" numLanes="1" speed="27.78" allow="rail_urban" oneway="1"/>
    <type id="railway.tram" priority="15" numLanes="1" speed="13.89" allow="tram" oneway="1"/>

    <edge id=":1814471103_0" function="internal">
        <lane id=":1814471103_0_0" index="0" speed="13.89" length="7.18" shape="1815.41,4976.41 1809.09,4979.82"/>
    </edge>
    <edge id=":1814471103_1" function="internal">
        <lane id=":1814471103_1_0" index="0" speed="13.89" length="7.17" shape="1807.53,4976.91 1813.84,4973.51"/>
    </edge>
    <edge id=":2653473644_0" function="internal">
        <lane id=":2653473644_0_0" index="0" speed="13.89" length="5.00" shape="1651.23,5067.66 1646.83,5070.02"/>
        <lane id=":2653473644_0_1" index="1" speed="13.89" length="5.00" shape="1649.67,5064.75 1645.27,5067.12"/>
    </edge>
    <edge id=":2653473644_2" function="internal">
        <lane id=":2653473644_2_0" index="0" speed="13.89" length="5.00" shape="1642.15,5061.30 1646.55,5058.94"/>
        <lane id=":2653473644_2_1" index="1" speed="13.89" length="5.00" shape="1643.71,5064.21 1648.11,5061.85"/>
    </edge>
    <edge id=":2653473655_0" function="internal">
        <lane id=":2653473655_0_0" index="0" disallow="tram rail_urban rail rail_electric ship" speed="27.78" length="5.04" shape="1691.92,5144.46 1687.49,5146.86"/>
        <lane id=":2653473655_0_1" index="1" disallow="tram rail_urban rail rail_electric ship" speed="27.78" length="5.04" shape="1690.35,5141.56 1685.92,5143.95"/>
    </edge>
    <edge id=":2653473655_2" function="internal">
        <lane id=":2653473655_2_0" index="0" disallow="tram rail_urban rail rail_electric ship" speed="27.78" length="2.41" shape="1690.35,5141.56 1688.87,5141.42 1688.11,5140.89"/>
    </edge>
    <edge id=":2653473655_6" function="internal">
        <lane id=":2653473655_6_0" index="0" speed="27.78" length="2.41" shape="1688.11,5140.89 1688.08,5139.97 1688.77,5138.66"/>
    </edge>
    <edge id=":2653473655_3" function="internal">
        <lane id=":2653473655_3_0" index="0" disallow="tram rail_urban rail rail_electric ship" speed="27.78" length="5.01" shape="1682.79,5138.14 1687.19,5135.76"/>
        <lane id=":2653473655_3_1" index="1" disallow="tram rail_urban rail rail_electric ship" speed="27.78" length="5.01" shape="1684.36,5141.05 1688.77,5138.66"/>
    </edge>
    <edge id=":2653473655_5" function="internal">
        <lane id=":2653473655_5_0" index="0" disallow="tram rail_urban rail rail_electric ship" speed="27.78" length="2.41" shape="1684.36,5141.05 1685.84,5141.19 1686.59,5141.72"/>
    </edge>
    <edge id=":2653473655_7" function="internal">
        <lane id=":2653473655_7_0" index="0" speed="27.78" length="2.41" shape="1686.59,5141.72 1686.62,5142.64 1685.92,5143.95"/>
    </edge>
    <edge id=":2698702581_0" function="internal">
        <lane id=":2698702581_0_0" index="0" disallow="tram rail_urban rail rail_electric ship" speed="11.18" length="4.82" shape="1411.22,5291.59 1409.74,5291.45 1408.98,5290.92 1408.95,5290.00 1409.65,5288.68"/>
    </edge>
    <edge id=":2698702583_0" function="internal">
        <lane id=":2698702583_0_0" index="0" speed="13.89" length="6.23" shape="1372.49,5217.23 1370.82,5217.54 1369.52,5216.96 1368.22,5216.39 1366.56,5216.72"/>
    </edge>
    <edge id=":2698702583_1" function="internal">
        <lane id=":2698702583_1_0" index="0" speed="13.89" length="5.68" shape="1364.95,5213.84 1366.14,5212.59 1366.37,5211.16 1366.61,5209.74 1367.81,5208.51"/>
        <lane id=":2698702583_1_1" index="1" speed="13.89" length="5.68" shape="1364.95,5213.84 1369.37,5211.42"/>
    </edge>
    <edge id=":2708133590_0" function="internal">
        <lane id=":2708133590_0_0" index="0" speed="13.89" length="7.11" shape="1740.41,4840.26 1734.17,4843.65"/>
        <lane id=":2708133590_0_1" index="1" speed="13.89" length="7.11" shape="1738.84,4837.36 1732.59,4840.75"/>
    </edge>
    <edge id=":2708133590_2" function="internal">
        <lane id=":2708133590_2_0" index="0" speed="13.89" length="7.12" shape="1729.44,4834.95 1735.70,4831.55"/>
        <lane id=":2708133590_2_1" index="1" speed="13.89" length="7.12" shape="1731.02,4837.85 1737.27,4834.46"/>
    </edge>
    <edge id=":3932923797_0" function="internal">
        <lane id=":3932923797_0_0" index="0" disallow="tram rail_urban rail rail_electric ship" speed="27.78" length="7.24" shape="1858.84,5054.23 1852.46,5057.66"/>
        <lane id=":3932923797_0_1" index="1" disallow="tram rail_urban rail rail_electric ship" speed="27.78" length="7.24" shape="1857.27,5051.32 1850.89,5054.76"/>
    </edge>
    <edge id=":3932923797_2" function="internal">
        <lane id=":3932923797_2_0" index="0" disallow="tram rail_urban rail rail_electric ship" speed="27.78" length="2.41" shape="1857.27,5051.32 1855.79,5051.18 1855.03,5050.65"/>
    </edge>
    <edge id=":3932923797_6" function="internal">
        <lane id=":3932923797_6_0" index="0" speed="27.78" length="2.41" shape="1855.03,5050.65 1855.00,5049.73 1855.70,5048.42"/>
    </edge>
    <edge id=":3932923797_3" function="internal">
        <lane id=":3932923797_3_0" index="0" disallow="tram rail_urban rail rail_electric ship" speed="27.78" length="7.24" shape="1847.76,5048.95 1854.13,5045.51"/>
        <lane id=":3932923797_3_1" index="1" disallow="tram rail_urban rail rail_electric ship" speed="27.78" length="7.24" shape="1849.33,5051.85 1855.70,5048.42"/>
    </edge>
    <edge id=":3932923797_5" function="internal">
        <lane id=":3932923797_5_0" index="0" disallow="tram rail_urban rail rail_electric ship" speed="27.78" length="2.41" shape="1849.33,5051.85 1850.81,5051.99 1851.56,5052.52"/>
    </edge>
    <edge id=":3932923797_7" function="internal">
        <lane id=":3932923797_7_0" index="0" speed="27.78" length="2.41" shape="1851.56,5052.52 1851.59,5053.44 1850.89,5054.76"/>
    </edge>
    <edge id=":3977886877_0" function="internal">
        <lane id=":3977886877_0_0" index="0" speed="13.89" length="5.03" shape="1605.96,4825.66 1605.16,4824.53 1604.19,4823.94 1603.06,4823.88 1601.77,4824.36"/>
    </edge>
    <edge id=":3977886877_1" function="internal">
        <lane id=":3977886877_1_0" index="0" speed="13.89" length="16.36" shape="1605.96,4825.66 1598.46,4811.12"/>
        <lane id=":3977886877_1_1" index="1" speed="13.89" length="16.36" shape="1608.89,4824.15 1601.39,4809.61"/>
    </edge>
    <edge id=":3977886877_3" function="internal">
        <lane id=":3977886877_3_0" index="0" speed="13.89" length="6.47" shape="1608.89,4824.15 1607.47,4820.04 1607.59,4817.92"/>
    </edge>
    <edge id=":3977886877_16" function="internal">
        <lane id=":3977886877_16_0" index="0" speed="13.89" length="9.42" shape="1607.59,4817.92 1607.68,4816.44 1609.53,4813.35 1613.01,4810.77"/>
    </edge>
    <edge id=":3977886877_4" function="internal">
        <lane id=":3977886877_4_0" index="0" speed="13.89" length="5.40" shape="1616.15,4816.57 1614.97,4817.45 1614.34,4818.50 1614.27,4819.73 1614.76,4821.13"/>
    </edge>
    <edge id=":3977886877_5" function="internal">
        <lane id=":3977886877_5_0" index="0" speed="13.89" length="16.36" shape="1616.15,4816.57 1601.77,4824.36"/>
        <lane id=":3977886877_5_1" index="1" speed="13.89" length="16.36" shape="1614.58,4813.67 1600.20,4821.46"/>
    </edge>
    <edge id=":3977886877_7" function="internal">
        <lane id=":3977886877_7_0" index="0" speed="13.89" length="6.43" shape="1614.58,4813.67 1610.51,4815.18 1608.43,4815.07"/>
    </edge>
    <edge id=":3977886877_17" function="internal">
        <lane id=":3977886877_17_0" index="0" speed="13.89" length="9.38" shape="1608.43,4815.07 1606.95,4815.00 1603.91,4813.14 1601.39,4809.61"/>
    </edge>
    <edge id=":3977886877_8" function="internal">
        <lane id=":3977886877_8_0" index="0" speed="13.89" length="5.02" shape="1607.25,4806.58 1608.06,4807.70 1609.02,4808.29 1610.15,4808.34 1611.44,4807.87"/>
    </edge>
    <edge id=":3977886877_9" function="internal">
        <lane id=":3977886877_9_0" index="0" speed="13.89" length="16.37" shape="1607.25,4806.58 1614.76,4821.13"/>
        <lane id=":3977886877_9_1" index="1" speed="13.89" length="16.37" shape="1604.32,4808.09 1611.83,4822.64"/>
    </edge>
    <edge id=":3977886877_11" function="internal">
        <lane id=":3977886877_11_0" index="0" speed="13.89" length="6.48" shape="1604.32,4808.09 1605.75,4812.19 1605.62,4814.32"/>
    </edge>
    <edge id=":3977886877_18" function="internal">
        <lane id=":3977886877_18_0" index="0" speed="13.89" length="9.41" shape="1605.62,4814.32 1605.54,4815.78 1603.69,4818.87 1600.20,4821.46"/>
    </edge>
    <edge id=":3977886877_12" function="internal">
        <lane id=":3977886877_12_0" index="0" speed="13.89" length="5.40" shape="1597.05,4815.66 1598.24,4814.78 1598.87,4813.73 1598.94,4812.51 1598.46,4811.12"/>
    </edge>
    <edge id=":3977886877_13" function="internal">
        <lane id=":3977886877_13_0" index="0" speed="13.89" length="16.37" shape="1597.05,4815.66 1611.44,4807.87"/>
        <lane id=":3977886877_13_1" index="1" speed="13.89" length="16.37" shape="1598.62,4818.56 1613.01,4810.77"/>
    </edge>
    <edge id=":3977886877_15" function="internal">
        <lane id=":3977886877_15_0" index="0" speed="13.89" length="6.44" shape="1598.62,4818.56 1602.70,4817.05 1604.79,4817.15"/>
    </edge>
    <edge id=":3977886877_19" function="internal">
        <lane id=":3977886877_19_0" index="0" speed="13.89" length="9.39" shape="1604.79,4817.15 1606.27,4817.23 1609.31,4819.09 1611.83,4822.64"/>
    </edge>
    <edge id=":4207892896_0" function="internal">
        <lane id=":4207892896_0_0" index="0" disallow="tram rail_urban rail rail_electric ship" speed="27.78" length="4.82" shape="2005.36,5161.93 2006.84,5162.07 2007.59,5162.60 2007.62,5163.52 2006.92,5164.83"/>
    </edge>
    <edge id=":42423674_0" function="internal">
        <lane id=":42423674_0_0" index="0" disallow="tram rail_urban rail rail_electric ship" speed="27.78" length="16.28" shape="1847.56,5254.35 1833.13,5261.95"/>
        <lane id=":42423674_0_1" index="1" disallow="tram rail_urban rail rail_electric ship" speed="27.78" length="16.28" shape="1846.00,5251.44 1831.62,5259.02"/>
    </edge>
    <edge id=":42423674_2" function="internal">
        <lane id=":42423674_2_0" index="0" speed="20.84" length="6.55" shape="1846.00,5251.44 1841.90,5252.94 1839.72,5252.83"/>
    </edge>
    <edge id=":42423674_3" function="internal">
        <lane id=":42423674_3_0" index="0" disallow="tram rail_urban rail rail_electric ship" speed="27.78" length="2.41" shape="1846.00,5251.44 1844.52,5251.30 1843.76,5250.77"/>
    </edge>
    <edge id=":42423674_10" function="internal">
        <lane id=":42423674_10_0" index="0" speed="20.84" length="9.31" shape="1839.72,5252.83 1838.34,5252.76 1835.31,5250.88 1832.80,5247.32"/>
    </edge>
    <edge id=":42423674_11" function="internal">
        <lane id=":42423674_11_0" index="0" speed="27.78" length="2.41" shape="1843.76,5250.77 1843.73,5249.85 1844.43,5248.54"/>
    </edge>
    <edge id=":42423674_4" function="internal">
        <lane id=":42423674_4_0" index="0" disallow="tram rail_urban rail rail_electric ship" speed="20.84" length="5.03" shape="1838.68,5244.32 1839.48,5245.45 1840.44,5246.05 1841.57,5246.11 1842.87,5245.63"/>
    </edge>
    <edge id=":42423674_5" function="internal">
        <lane id=":42423674_5_0" index="0" disallow="tram rail_urban rail rail_electric ship" speed="20.84" length="15.75" shape="1835.74,5245.82 1837.16,5249.94 1836.94,5253.51 1835.10,5256.53 1831.62,5259.02"/>
    </edge>
    <edge id=":42423674_6" function="internal">
        <lane id=":42423674_6_0" index="0" speed="20.84" length="5.15" shape="1828.60,5253.15 1829.71,5252.35 1830.29,5251.36 1830.34,5250.18 1829.86,5248.81"/>
    </edge>
    <edge id=":42423674_7" function="internal">
        <lane id=":42423674_7_0" index="0" disallow="tram rail_urban rail rail_electric ship" speed="27.78" length="16.16" shape="1828.60,5253.15 1842.87,5245.63"/>
        <lane id=":42423674_7_1" index="1" disallow="tram rail_urban rail rail_electric ship" speed="27.78" length="16.16" shape="1830.11,5256.08 1844.43,5248.54"/>
    </edge>
    <edge id=":42423674_9" function="internal">
        <lane id=":42423674_9_0" index="0" disallow="tram rail_urban rail rail_electric ship" speed="27.78" length="2.41" shape="1830.11,5256.08 1831.58,5256.25 1832.33,5256.80"/>
    </edge>
    <edge id=":42423674_12" function="internal">
        <lane id=":42423674_12_0" index="0" speed="27.78" length="2.41" shape="1832.33,5256.80 1832.34,5257.72 1831.62,5259.02"/>
    </edge>
    <edge id=":42428310_0" function="internal">
        <lane id=":42428310_0_0" index="0" speed="13.89" length="0.26" shape="1455.57,4717.59 1455.46,4717.37"/>
        <lane id=":42428310_0_1" index="1" speed="13.89" length="0.26" shape="1458.55,4716.18 1458.43,4715.93"/>
    </edge>
    <edge id=":42428310_2" function="internal">
        <lane id=":42428310_2_0" index="0" speed="13.89" length="0.33" shape="1464.37,4713.04 1464.52,4713.35"/>
        <lane id=":42428310_2_1" index="1" speed="13.89" length="0.33" shape="1461.40,4714.49 1461.53,4714.77"/>
    </edge>
    <edge id=":42428312_0" function="internal">
        <lane id=":42428312_0_0" index="0" speed="13.89" length="5.09" shape="1491.46,4793.66 1490.71,4792.47 1489.76,4791.83 1488.63,4791.76 1487.30,4792.25"/>
    </edge>
    <edge id=":42428312_1" function="internal">
        <lane id=":42428312_1_0" index="0" speed="13.89" length="10.19" shape="1491.46,4793.66 1487.22,4784.43"/>
        <lane id=":42428312_1_1" index="1" speed="13.89" length="10.19" shape="1494.47,4792.32 1490.21,4783.02"/>
    </edge>
    <edge id=":42428312_3" function="internal">
        <lane id=":42428312_3_0" index="0" speed="13.89" length="4.74" shape="1494.47,4792.32 1493.80,4789.32 1494.23,4787.72"/>
    </edge>
    <edge id=":42428312_14" function="internal">
        <lane id=":42428312_14_0" index="0" speed="13.89" length="8.91" shape="1494.23,4787.72 1494.55,4786.53 1496.73,4783.95 1500.33,4781.59"/>
    </edge>
    <edge id=":42428312_4" function="internal">
        <lane id=":42428312_4_0" index="0" speed="13.89" length="5.95" shape="1501.86,4784.52 1500.67,4785.41 1500.04,4786.57 1499.99,4787.98 1500.50,4789.64"/>
    </edge>
    <edge id=":42428312_5" function="internal">
        <lane id=":42428312_5_0" index="0" speed="13.89" length="16.48" shape="1501.86,4784.52 1487.30,4792.25"/>
    </edge>
    <edge id=":42428312_6" function="internal">
        <lane id=":42428312_6_0" index="0" speed="13.89" length="7.63" shape="1501.86,4784.52 1497.84,4786.14 1494.56,4786.43"/>
    </edge>
    <edge id=":42428312_15" function="internal">
        <lane id=":42428312_15_0" index="0" speed="13.89" length="5.73" shape="1494.56,4786.43 1492.01,4785.39 1490.21,4783.02"/>
    </edge>
    <edge id=":42428312_7" function="internal">
        <lane id=":42428312_7_0" index="0" speed="13.89" length="5.05" shape="1496.17,4780.20 1496.94,4781.36 1497.89,4781.98 1499.02,4782.05 1500.33,4781.59"/>
    </edge>
    <edge id=":42428312_8" function="internal">
        <lane id=":42428312_8_0" index="0" speed="13.89" length="10.35" shape="1496.17,4780.20 1500.50,4789.64"/>
        <lane id=":42428312_8_1" index="1" speed="13.89" length="10.35" shape="1493.19,4781.61 1497.49,4790.98"/>
    </edge>
    <edge id=":42428312_10" function="internal">
        <lane id=":42428312_10_0" index="0" speed="13.89" length="4.71" shape="1493.19,4781.61 1493.88,4784.50 1493.41,4786.18"/>
    </edge>
    <edge id=":42428312_16" function="internal">
        <lane id=":42428312_16_0" index="0" speed="13.89" length="8.85" shape="1493.41,4786.18 1493.12,4787.24 1490.93,4789.82 1487.30,4792.25"/>
    </edge>
    <edge id=":42428312_11" function="internal">
        <lane id=":42428312_11_0" index="0" speed="13.89" length="5.78" shape="1485.74,4789.35 1486.97,4788.42 1487.63,4787.30 1487.71,4785.97 1487.22,4784.43"/>
    </edge>
    <edge id=":42428312_12" function="internal">
        <lane id=":42428312_12_0" index="0" speed="13.89" length="16.53" shape="1485.74,4789.35 1500.33,4781.59"/>
    </edge>
    <edge id=":42428312_13" function="internal">
        <lane id=":42428312_13_0" index="0" speed="13.89" length="7.74" shape="1485.74,4789.35 1489.80,4787.65 1493.12,4787.35"/>
    </edge>
    <edge id=":42428312_17" function="internal">
        <lane id=":42428312_17_0" index="0" speed="13.89" length="5.89" shape="1493.12,4787.35 1495.68,4788.46 1497.49,4790.98"/>
    </edge>
    <edge id=":42428313_0" function="internal">
        <lane id=":42428313_0_0" index="0" speed="13.89" length="5.17" shape="1524.58,4869.46 1523.89,4868.20 1522.97,4867.52 1521.84,4867.42 1520.48,4867.92"/>
    </edge>
    <edge id=":42428313_1" function="internal">
        <lane id=":42428313_1_0" index="0" speed="13.89" length="17.26" shape="1524.58,4869.46 1518.10,4853.57"/>
        <lane id=":42428313_1_1" index="1" speed="13.89" length="17.26" shape="1527.67,4868.30 1521.11,4852.23"/>
    </edge>
    <edge id=":42428313_3" function="internal">
        <lane id=":42428313_3_0" index="0" speed="13.89" length="6.61" shape="1527.67,4868.30 1526.62,4863.73 1526.86,4861.82"/>
    </edge>
    <edge id=":42428313_16" function="internal">
        <lane id=":42428313_16_0" index="0" speed="13.89" length="10.37" shape="1526.86,4861.82 1527.12,4859.81 1529.19,4856.54 1532.81,4853.92"/>
    </edge>
    <edge id=":42428313_4" function="internal">
        <lane id=":42428313_4_0" index="0" speed="13.89" length="7.25" shape="1535.86,4859.78 1534.37,4860.87 1533.54,4862.27 1533.37,4863.98 1533.85,4865.99"/>
    </edge>
    <edge id=":42428313_5" function="internal">
        <lane id=":42428313_5_0" index="0" speed="13.89" length="17.42" shape="1535.86,4859.78 1520.48,4867.92"/>
        <lane id=":42428313_5_1" index="1" speed="13.89" length="17.42" shape="1534.33,4856.85 1518.92,4865.01"/>
    </edge>
    <edge id=":42428313_7" function="internal">
        <lane id=":42428313_7_0" index="0" speed="13.89" length="6.41" shape="1534.33,4856.85 1530.11,4858.33 1528.18,4858.19"/>
    </edge>
    <edge id=":42428313_17" function="internal">
        <lane id=":42428313_17_0" index="0" speed="13.89" length="9.79" shape="1528.18,4858.19 1526.49,4858.06 1523.50,4856.02 1521.11,4852.23"/>
    </edge>
    <edge id=":42428313_8" function="internal">
        <lane id=":42428313_8_0" index="0" speed="13.89" length="5.08" shape="1527.14,4849.55 1527.89,4850.74 1528.83,4851.37 1529.96,4851.46 1531.28,4851.00"/>
    </edge>
    <edge id=":42428313_9" function="internal">
        <lane id=":42428313_9_0" index="0" speed="13.89" length="17.66" shape="1527.14,4849.55 1533.85,4865.99"/>
        <lane id=":42428313_9_1" index="1" speed="13.89" length="17.66" shape="1524.13,4850.89 1530.76,4867.14"/>
    </edge>
    <edge id=":42428313_11" function="internal">
        <lane id=":42428313_11_0" index="0" speed="13.89" length="6.88" shape="1524.13,4850.89 1525.32,4855.20 1525.03,4857.59"/>
    </edge>
    <edge id=":42428313_18" function="internal">
        <lane id=":42428313_18_0" index="0" speed="13.89" length="10.01" shape="1525.03,4857.59 1524.86,4858.99 1522.72,4862.26 1518.92,4865.01"/>
    </edge>
    <edge id=":42428313_12" function="internal">
        <lane id=":42428313_12_0" index="0" speed="13.89" length="6.82" shape="1515.79,4859.20 1517.39,4858.07 1518.31,4856.75 1518.54,4855.25 1518.10,4853.57"/>
    </edge>
    <edge id=":42428313_13" function="internal">
        <lane id=":42428313_13_0" index="0" speed="13.89" length="17.51" shape="1515.79,4859.20 1531.28,4851.00"/>
        <lane id=":42428313_13_1" index="1" speed="13.89" length="17.51" shape="1517.35,4862.11 1532.81,4853.92"/>
    </edge>
    <edge id=":42428313_15" function="internal">
        <lane id=":42428313_15_0" index="0" speed="13.89" length="6.68" shape="1517.35,4862.11 1521.79,4860.49 1523.74,4860.65"/>
    </edge>
    <edge id=":42428313_19" function="internal">
        <lane id=":42428313_19_0" index="0" speed="13.89" length="10.21" shape="1523.74,4860.65 1525.50,4860.79 1528.49,4863.01 1530.76,4867.14"/>
    </edge>
    <edge id=":42428315_0" function="internal">
        <lane id=":42428315_0_0" index="0" speed="13.89" length="5.30" shape="1552.39,4946.12 1551.79,4944.74 1550.92,4944.00 1549.78,4943.88 1548.37,4944.41"/>
    </edge>
    <edge id=":42428315_1" function="internal">
        <lane id=":42428315_1_0" index="0" speed="13.89" length="18.56" shape="1552.39,4946.12 1550.94,4940.86 1549.88,4937.27 1548.66,4933.73 1546.76,4928.61"/>
        <lane id=":42428315_1_1" index="1" speed="13.89" length="18.56" shape="1555.57,4945.26 1554.10,4939.90 1553.02,4936.25 1551.78,4932.66 1549.85,4927.45"/>
    </edge>
    <edge id=":42428315_3" function="internal">
        <lane id=":42428315_3_0" index="0" speed="13.89" length="7.40" shape="1555.57,4945.26 1554.86,4940.27 1555.29,4937.94"/>
    </edge>
    <edge id=":42428315_16" function="internal">
        <lane id=":42428315_16_0" index="0" speed="13.89" length="11.00" shape="1555.29,4937.94 1555.66,4935.99 1557.95,4932.41 1561.74,4929.54"/>
    </edge>
    <edge id=":42428315_4" function="internal">
        <lane id=":42428315_4_0" index="0" speed="13.89" length="9.52" shape="1564.95,4935.31 1563.05,4936.77 1561.91,4938.62 1561.54,4940.88 1561.94,4943.52"/>
    </edge>
    <edge id=":42428315_5" function="internal">
        <lane id=":42428315_5_0" index="0" speed="13.89" length="18.90" shape="1564.95,4935.31 1548.37,4944.41"/>
        <lane id=":42428315_5_1" index="1" speed="13.89" length="18.90" shape="1563.34,4932.42 1546.79,4941.51"/>
    </edge>
    <edge id=":42428315_7" function="internal">
        <lane id=":42428315_7_0" index="0" speed="13.89" length="6.68" shape="1563.34,4932.42 1558.89,4934.11 1556.98,4933.98"/>
    </edge>
    <edge id=":42428315_17" function="internal">
        <lane id=":42428315_17_0" index="0" speed="13.89" length="10.33" shape="1556.98,4933.98 1555.16,4933.85 1552.14,4931.63 1549.85,4927.45"/>
    </edge>
    <edge id=":42428315_8" function="internal">
        <lane id=":42428315_8_0" index="0" speed="13.89" length="5.19" shape="1556.03,4925.14 1556.73,4926.41 1557.65,4927.08 1558.79,4927.17 1560.14,4926.65"/>
    </edge>
    <edge id=":42428315_9" function="internal">
        <lane id=":42428315_9_0" index="0" speed="13.89" length="19.17" shape="1556.03,4925.14 1558.03,4930.51 1559.30,4934.22 1560.42,4937.99 1561.94,4943.52"/>
        <lane id=":42428315_9_1" index="1" speed="13.89" length="19.17" shape="1552.94,4926.29 1554.91,4931.59 1556.16,4935.24 1557.26,4938.94 1558.75,4944.39"/>
    </edge>
    <edge id=":42428315_11" function="internal">
        <lane id=":42428315_11_0" index="0" speed="13.89" length="6.85" shape="1552.94,4926.29 1553.94,4930.94 1553.59,4933.00"/>
    </edge>
    <edge id=":42428315_18" function="internal">
        <lane id=":42428315_18_0" index="0" speed="13.89" length="11.34" shape="1553.59,4933.00 1553.25,4935.03 1550.87,4938.55 1546.79,4941.51"/>
    </edge>
    <edge id=":42428315_12" function="internal">
        <lane id=":42428315_12_0" index="0" speed="13.89" length="8.59" shape="1543.64,4935.71 1545.63,4934.29 1546.82,4932.63 1547.20,4930.74 1546.76,4928.61"/>
    </edge>
    <edge id=":42428315_13" function="internal">
        <lane id=":42428315_13_0" index="0" speed="13.89" length="18.84" shape="1543.64,4935.71 1560.14,4926.65"/>
        <lane id=":42428315_13_1" index="1" speed="13.89" length="18.84" shape="1545.21,4938.61 1561.74,4929.54"/>
    </edge>
    <edge id=":42428315_15" function="internal">
        <lane id=":42428315_15_0" index="0" speed="13.89" length="6.77" shape="1545.21,4938.61 1549.97,4936.85 1551.66,4937.01"/>
    </edge>
    <edge id=":42428315_19" function="internal">
        <lane id=":42428315_19_0" index="0" speed="13.89" length="11.09" shape="1551.66,4937.01 1553.81,4937.22 1556.74,4939.74 1558.75,4944.39"/>
    </edge>
    <edge id=":42428321_0" function="internal">
        <lane id=":42428321_0_0" index="0" speed="13.89" length="5.37" shape="1572.46,5020.95 1571.92,5019.51 1571.08,5018.73 1569.93,5018.60 1568.49,5019.13"/>
    </edge>
    <edge id=":42428321_1" function="internal">
        <lane id=":42428321_1_0" index="0" speed="13.89" length="12.91" shape="1572.46,5020.95 1569.38,5008.48"/>
        <lane id=":42428321_1_1" index="1" speed="13.89" length="12.91" shape="1575.68,5020.23 1572.57,5007.62"/>
    </edge>
    <edge id=":42428321_3" function="internal">
        <lane id=":42428321_3_0" index="0" speed="13.89" length="5.56" shape="1575.68,5020.23 1575.49,5016.52 1576.08,5014.78"/>