<additional>
<vType id="ped" vClass="pedestrian" length="0.2" width="0.5" minGap="0.3" maxSpeed="1.3" />
</additional>