<?xml version="1.0" encoding="UTF-8"?>

<!-- generated on Tue Nov  6 17:21:49 2018 by SUMO duarouter Version 0.32.0
<?xml version="1.0" encoding="UTF-8"?>

<configuration xmlns:xsi="http://www.w3.org/2001/XMLSchema-instance" xsi:noNamespaceSchemaLocation="http://sumo.dlr.de/xsd/duarouterConfiguration.xsd">

    <input>
        <net-file value="Manhattan.net.xml"/>
        <additional-files value="ped.add.xml"/>
        <route-files value="trips.trips.xml"/>
    </input>

    <output>
        <output-file value="peds.rou.xml"/>
        <alternatives-output value="peds.rou.alt.xml"/>
    </output>

    <processing>
        <ignore-errors value="true"/>
    </processing>

    <time>
        <begin value="0"/>
        <end value="50000.0"/>
    </time>

    <report>
        <no-warnings value="true"/>
        <no-step-log value="true"/>
    </report>

</configuration>
-->

<routes xmlns:xsi="http://www.w3.org/2001/XMLSchema-instance" xsi:noNamespaceSchemaLocation="http://sumo.dlr.de/xsd/routes_file.xsd">
    <vType id="ped" length="0.20" minGap="0.30" maxSpeed="1.30" vClass="pedestrian" width="0.50"/>
    <person id="0" type="ped" depart="0.00">
        <walk edges="gneE17 -gneE21 -gneE29 -gneE30 -259914621 -458448241#0 -458448241#1 -458448234 -gneE64"/>
    </person>
    <person id="1" type="ped" depart="30.00">
        <walk edges="gneE22 -gneE24 -gneE25 -gneE26 -gneE29 -gneE30 -gneE31 gneE32"/>
    </person>
    <person id="2" type="ped" depart="60.00">
        <walk edges="499172074#12 499172074#11 -gneE33 -gneE18 -gneE16 -gneE9 -gneE8"/>
    </person>
    <person id="3" type="ped" depart="90.00">
        <walk edges="gneE70 -gneE47 -gneE46 -gneE33 -gneE18 -196117083 5672752#1 -5672752#0"/>
    </person>
    <person id="4" type="ped" depart="120.00">
        <walk edges="499172074#1 499172074#2 499172074#5 499172074#7 499172074#8 499172074#9 499172074#10 499172074#11 555303393"/>
    </person>
    <person id="5" type="ped" depart="150.00">
        <walk edges="-gneE47 -gneE69 -gneE67 -gneE66 -gneE5"/>
    </person>
    <person id="6" type="ped" depart="180.00">
        <walk edges="gneE70 -gneE70"/>
    </person>
    <person id="7" type="ped" depart="210.00">
        <walk edges="gneE34 -gneE25 gneE26"/>
    </person>
    <person id="8" type="ped" depart="240.00">
        <walk edges="-gneE18 -gneE24 -gneE34 499172074#7 499172074#5"/>
    </person>
    <person id="9" type="ped" depart="270.00">
        <walk edges="-gneE52 -gneE37 -gneE36 -gneE35 -gneE34 gneE20"/>
    </person>
    <person id="10" type="ped" depart="300.00">
        <walk edges="-196117083 5672752#1 -5672752#0 gneE21"/>
    </person>
    <person id="11" type="ped" depart="330.00">
        <walk edges="-gneE7 -gneE17 -496986969#1 496986969#0"/>
    </person>
    <person id="12" type="ped" depart="360.00">
        <walk edges="-gneE7 -gneE6"/>
    </person>
    <person id="13" type="ped" depart="390.00">
        <walk edges="-gneE52 -gneE37 -gneE36 -gneE35 499172074#8 499172074#9 499172074#10"/>
    </person>
    <person id="14" type="ped" depart="420.00">
        <walk edges="gneE5 -gneE66 -gneE67 -gneE36 -gneE35 -gneE34 -gneE24 gneE33"/>
    </person>
    <person id="15" type="ped" depart="450.00">
        <walk edges="-196116988#0 -gneE6 -gneE17 -gneE21 -gneE40 -gneE41 -gneE42 gneE5"/>
    </person>
    <person id="16" type="ped" depart="480.00">
        <walk edges="gneE32 -gneE31 -gneE30 -gneE29 -gneE26 -gneE25 gneE34"/>
    </person>
    <person id="17" type="ped" depart="510.00">
        <walk edges="gneE64 -gneE62 -gneE61 -gneE35 -gneE34 -gneE20 -196117083 gneE18"/>
    </person>
    <person id="18" type="ped" depart="540.00">
        <walk edges="gneE7 -gneE17 -gneE21 -gneE40 499172074#5 499172074#7 499172074#8 499172074#9 499172074#10 -gneE46 -gneE47"/>
    </person>
    <person id="19" type="ped" depart="570.00">
        <walk edges="gneE18 -196117083 5672752#1 -5672752#0 -496986969#1 -496986969#0"/>
    </person>
    <person id="20" type="ped" depart="600.00">
        <walk edges="gneE32 -gneE31 -gneE30 -gneE29 -gneE40 499172074#5 499172074#7 499172074#8 499172074#9 499172074#10 -gneE46 -gneE47 -gneE48 -gneE51"/>
    </person>
    <person id="21" type="ped" depart="630.00">
        <walk edges="-gneE23 -gneE22 -gneE33 -gneE46 -gneE47 gneE70"/>
    </person>
    <person id="22" type="ped" depart="660.00">
        <walk edges="-gneE7 -gneE17 -gneE21 -gneE40 499172074#5 499172074#7 499172074#8 499172074#9 499172074#10"/>
    </person>
    <person id="23" type="ped" depart="690.00">
        <walk edges="-gneE39 -gneE38 -gneE37 -gneE69 gneE70"/>
    </person>
    <person id="24" type="ped" depart="720.00">
        <walk edges="420899373 -gneE15 -gneE8 gneE17"/>
    </person>
    <person id="25" type="ped" depart="750.00">
        <walk edges="gneE59 -gneE60 -gneE36 -gneE37 -gneE53 -gneE54 -gneE43"/>
    </person>
    <person id="26" type="ped" depart="780.00">
        <walk edges="gneE40 -gneE26 -gneE25 -gneE20 -gneE14 -gneE9 gneE58"/>
    </person>
    <person id="27" type="ped" depart="810.00">
        <walk edges="-gneE32 -gneE31 -gneE30 -gneE29 -gneE40 499172074#5 499172074#7"/>
    </person>
    <person id="28" type="ped" depart="840.00">
        <walk edges="-458448234 -458448241#1 -458448241#0 -259914621 -458448243#0 -458448233 -458448238 496986969#1"/>
    </person>
    <person id="29" type="ped" depart="870.00">
        <walk edges="gneE56 -gneE16 -gneE18 -gneE22"/>
    </person>
    <person id="30" type="ped" depart="900.00">
        <walk edges="-gneE60 -gneE61 -gneE62 gneE42"/>
    </person>
    <person id="31" type="ped" depart="930.00">
        <walk edges="-420899373 -gneE6 -gneE17 -gneE21 -gneE29 -gneE30 -259914621"/>
    </person>
    <person id="32" type="ped" depart="960.00">
        <walk edges="-gneE70 gneE69"/>
    </person>
    <person id="33" type="ped" depart="990.00">
        <walk edges="gneE24 -gneE34 -gneE35 -gneE36 -gneE67 -gneE66 -gneE42"/>
    </person>
    <person id="34" type="ped" depart="1020.00">
        <walk edges="-gneE51 -gneE48 -gneE47 -gneE46 499172074#10 499172074#9 499172074#8 499172074#7 499172074#5 -gneE40 -gneE21 -gneE17 gneE7"/>
    </person>
    <person id="35" type="ped" depart="1050.00">
        <walk edges="-gneE38 -gneE37 gneE69"/>
    </person>
    <person id="36" type="ped" depart="1080.00">
        <walk edges="-gneE70 -gneE47 -gneE46 -gneE33 -gneE18 -196117083 5672752#1"/>
    </person>
    <person id="37" type="ped" depart="1110.00">
        <walk edges="gneE44 -gneE54 -gneE53 -gneE37 -gneE36 -gneE35 -gneE34 gneE25"/>
    </person>
    <person id="38" type="ped" depart="1140.00">
        <walk edges="-196116988#0 -gneE6 -gneE17 -gneE21 -gneE40 499172074#5 499172074#7 499172074#8 499172074#9 499172074#10 -gneE46 gneE59"/>
    </person>
    <person id="39" type="ped" depart="1170.00">
        <walk edges="-458642436 499172074#10 -gneE33 -gneE22"/>
    </person>
    <person id="40" type="ped" depart="1200.00">
        <walk edges="196116988#0 -gneE6 -gneE17 -gneE21 -gneE40 -gneE41 -gneE62 -gneE61 -gneE60"/>
    </person>
    <person id="41" type="ped" depart="1230.00">
        <walk edges="196116988#0 -gneE6 -gneE17 -gneE21 -gneE40 -gneE41 -gneE42 gneE43"/>
    </person>
    <person id="42" type="ped" depart="1260.00">
        <walk edges="gneE16 -gneE9 -gneE14 -gneE20 -gneE34 gneE35"/>
    </person>
    <person id="43" type="ped" depart="1290.00">
        <walk edges="gneE55 -gneE54 -gneE53 -gneE37 -gneE36 -gneE35 -gneE34 -gneE20 -gneE14 -gneE8"/>
    </person>
    <person id="44" type="ped" depart="1320.00">
        <walk edges="-gneE69 -gneE47 -gneE46 -gneE33 -gneE18 -gneE16 gneE9"/>
    </person>
    <person id="45" type="ped" depart="1350.00">
        <walk edges="-gneE55 -gneE54 -gneE53 -gneE52 gneE49 -gneE49"/>
    </person>
    <person id="46" type="ped" depart="1380.00">
        <walk edges="-gneE65 -458448234 -458448241#1 -458448241#0 -259914621 -gneE30 -gneE29 -gneE21 -gneE17 gneE7"/>
    </person>
    <person id="47" type="ped" depart="1410.00">
        <walk edges="-gneE39 -gneE38 -gneE37 -gneE36 -gneE35 gneE34"/>
    </person>
    <person id="48" type="ped" depart="1440.00">
        <walk edges="gneE70 -gneE47 -gneE60"/>
    </person>
    <person id="49" type="ped" depart="1470.00">
        <walk edges="-gneE23 -gneE22 -gneE33 499172074#10 458642436"/>
    </person>
    <person id="50" type="ped" depart="1500.00">
        <walk edges="-458448241#0 -259914621 -gneE30 -gneE29 -gneE21 -gneE17 -gneE6 -196116988#0"/>
    </person>
    <person id="51" type="ped" depart="1530.00">
        <walk edges="-gneE65 -gneE64 -gneE62 -gneE61 -gneE35 -gneE34 -gneE20 -gneE14 -gneE15 -gneE57 -gneE56"/>
    </person>
    <person id="52" type="ped" depart="1560.00">
        <walk edges="-gneE7 -gneE8"/>
    </person>
    <person id="53" type="ped" depart="1590.00">
        <walk edges="gneE33 -gneE24 -gneE34 -gneE35 -gneE61 gneE62"/>
    </person>
    <person id="54" type="ped" depart="1620.00">
        <walk edges="gneE70 -gneE47 -gneE46 -gneE33 -gneE18 -gneE16 -gneE56 -gneE57 420899373"/>
    </person>
    <person id="55" type="ped" depart="1650.00">
        <walk edges="-gneE56 -gneE57 -gneE15 -gneE14 -gneE20 -gneE25 gneE26"/>
    </person>
    <person id="56" type="ped" depart="1680.00">
        <walk edges="-gneE62 -gneE61 -gneE35 499172074#8 499172074#9 499172074#10 gneE46"/>
    </person>
    <person id="57" type="ped" depart="1710.00">
        <walk edges="gneE69 -gneE36 -gneE35 -gneE34 -gneE20 -gneE14 -gneE15 420899373"/>
    </person>
    <person id="58" type="ped" depart="1740.00">
        <walk edges="-gneE67"/>
    </person>
    <person id="59" type="ped" depart="1770.00">
        <walk edges="gneE55 -gneE43 -gneE42 -gneE41 499172074#5"/>
    </person>
    <person id="60" type="ped" depart="1800.00">
        <walk edges="gneE52 -gneE48 -gneE47 -gneE60 -gneE61 -gneE62 -gneE41"/>
    </person>
    <person id="61" type="ped" depart="1830.00">
        <walk edges="-gneE16 -gneE18 -gneE33 -gneE46 gneE60"/>
    </person>
    <person id="62" type="ped" depart="1860.00">
        <walk edges="gneE52 -gneE48 -gneE47 -gneE46 499172074#10 499172074#9 499172074#8 499172074#7 499172074#5 -gneE40 -gneE21 -gneE17 gneE7"/>
    </person>
    <person id="63" type="ped" depart="1890.00">
        <walk edges="499172074#12 499172074#11 499172074#10 499172074#9 499172074#8 499172074#7 499172074#5 -gneE40 -gneE29 -477823038 458452177#5 -458448233 -458448238 496986969#0"/>
    </person>
    <person id="64" type="ped" depart="1920.00">
        <walk edges="gneE62 -gneE61 -gneE60 -gneE59"/>
    </person>
    <person id="66" type="ped" depart="1980.00">
        <walk edges="-196117083 gneE18"/>
    </person>
    <person id="67" type="ped" depart="2010.00">
        <walk edges="420899373 -gneE15 -gneE14 -gneE20 -gneE34 499172074#7 499172074#5 -gneE40"/>
    </person>
    <person id="68" type="ped" depart="2040.00">
        <walk edges="gneE43 -gneE66 -gneE67 -gneE36 -gneE35 499172074#8 499172074#9 499172074#10 499172074#11"/>
    </person>
    <person id="69" type="ped" depart="2070.00">
        <walk edges="gneE59 -gneE47 -gneE69"/>
    </person>
    <person id="70" type="ped" depart="2100.00">
        <walk edges="gneE60 -gneE61"/>
    </person>
    <person id="71" type="ped" depart="2130.00">
        <walk edges="-420899373 -gneE6 -gneE17 -gneE21 -gneE26"/>
    </person>
    <person id="72" type="ped" depart="2160.00">
        <walk edges="-gneE33 499172074#10 499172074#9 499172074#8 499172074#7 499172074#5 -gneE40 -gneE29 -477823038 458452177#5 -458448233 -458448238 -496986969#0"/>
    </person>
    <person id="73" type="ped" depart="2190.00">
        <walk edges="499172074#2 -gneE41 -gneE42 gneE43"/>
    </person>
    <person id="74" type="ped" depart="2220.00">
        <walk edges="gneE41 499172074#5 499172074#7 499172074#8 499172074#9"/>
    </person>
    <person id="75" type="ped" depart="2250.00">
        <walk edges="gneE23 -gneE22 -gneE24 -gneE34 499172074#7 499172074#5 gneE41"/>
    </person>
    <person id="76" type="ped" depart="2280.00">
        <walk edges="gneE7 -gneE17 -gneE21 -gneE40 499172074#5 499172074#7 499172074#8 499172074#9 499172074#10 -gneE46 -gneE47 gneE70"/>
    </person>
    <person id="77" type="ped" depart="2310.00">
        <walk edges="-458448241#0 499172074#2 -gneE41 -gneE42 -gneE5"/>
    </person>
    <person id="78" type="ped" depart="2340.00">
        <walk edges="gneE16 -gneE18 -gneE33 -gneE46 -gneE47 -gneE70"/>
    </person>
    <person id="79" type="ped" depart="2370.00">
        <walk edges="gneE51 -gneE48 -gneE47 -gneE46 -gneE33 -gneE22"/>
    </person>
    <person id="80" type="ped" depart="2400.00">
        <walk edges="-gneE31 -458448243#0 -458448233 -458448238 -496986969#0"/>
    </person>
    <person id="81" type="ped" depart="2430.00">
        <walk edges="-505582406#0 -196117083 5672752#1 -5672752#0 -496986969#1 496986969#0"/>
    </person>
    <person id="82" type="ped" depart="2460.00">
        <walk edges="-196116988#0 -gneE6 -gneE17 -gneE21 -gneE40 -gneE41 -gneE62 -gneE61 -gneE35"/>
    </person>
    <person id="83" type="ped" depart="2490.00">
        <walk edges="499172074#1 499172074#2 -gneE41 -gneE42 gneE66"/>
    </person>
    <person id="84" type="ped" depart="2520.00">
        <walk edges="gneE16 -gneE56 -gneE57 420899373"/>
    </person>
    <person id="85" type="ped" depart="2550.00">
        <walk edges="-gneE7 -gneE17 -gneE21 -gneE26 -gneE25 -gneE24"/>
    </person>
    <person id="86" type="ped" depart="2580.00">
        <walk edges="gneE33 -gneE24 -gneE34 -gneE35 -gneE36 -gneE67 -gneE66"/>
    </person>
    <person id="87" type="ped" depart="2610.00">
        <walk edges="-496986969#0 -458448238 -458448233 -458448243#0 -259914621 -458448241#0 -458448241#1 -458448234 gneE65"/>
    </person>
    <person id="88" type="ped" depart="2640.00">
        <walk edges="-gneE24 -gneE25 -gneE26 -gneE21 -gneE17 gneE7"/>
    </person>
    <person id="89" type="ped" depart="2670.00">
        <walk edges="-gneE24 -gneE25 -gneE26 -gneE29 -gneE30 -gneE31 gneE32"/>
    </person>
    <person id="90" type="ped" depart="2700.00">
        <walk edges="-gneE23 -gneE22 -gneE33 gneE46"/>
    </person>
    <person id="91" type="ped" depart="2730.00">
        <walk edges="-gneE70 -gneE47 -gneE46 -gneE33 -gneE18 505582406#0"/>
    </person>
    <person id="92" type="ped" depart="2760.00">
        <walk edges="-gneE23 -gneE22 -gneE24 -gneE34 -gneE35 -gneE61 -gneE62 -gneE64 gneE65"/>
    </person>
    <person id="93" type="ped" depart="2790.00">
        <walk edges="gneE55 -gneE43 -gneE42 gneE64"/>
    </person>
    <person id="95" type="ped" depart="2850.00">
        <walk edges="499172074#1 499172074#2 499172074#5 499172074#7 -gneE34"/>
    </person>
    <person id="96" type="ped" depart="2880.00">
        <walk edges="gneE23 264211595 -505582406#1 -505582406#0 196117083"/>
    </person>
    <person id="97" type="ped" depart="2910.00">
        <walk edges="-gneE7 -gneE17 -gneE21 -gneE40 -gneE41 -gneE42 -gneE43 gneE55"/>
    </person>
    <person id="98" type="ped" depart="2940.00">
        <walk edges="gneE49 -gneE52"/>
    </person>
    <person id="99" type="ped" depart="2970.00">
        <walk edges="496986969#1 -458448238 -458448233 -458448243#0 -gneE31 gneE32"/>
    </person>
    <person id="100" type="ped" depart="3000.00">
        <walk edges="gneE69 -gneE67 -gneE66 -gneE42 -gneE64 458448234"/>
    </person>
    <person id="101" type="ped" depart="3030.00">
        <walk edges="gneE60 -gneE46 499172074#10 499172074#9 499172074#8 499172074#7 499172074#5 -gneE40 -gneE21 -gneE17 gneE7"/>
    </person>
    <person id="102" type="ped" depart="3060.00">
        <walk edges="-gneE56 -gneE57 -gneE15 -gneE14 -gneE20 -gneE34 499172074#7 499172074#5 gneE41"/>
    </person>
    <person id="103" type="ped" depart="3090.00">
        <walk edges="-420899373 420899373"/>
    </person>
    <person id="104" type="ped" depart="3120.00">
        <walk edges="gneE7 -gneE7"/>
    </person>
    <person id="105" type="ped" depart="3150.00">
        <walk edges="499172074#12 499172074#11 499172074#10 499172074#9 499172074#8 -gneE35 -gneE36 -gneE67 -gneE66 -gneE5"/>
    </person>
    <person id="106" type="ped" depart="3180.00">
        <walk edges="gneE49 -gneE48 -gneE69"/>
    </person>
    <person id="107" type="ped" depart="3210.00">
        <walk edges="gneE50 gneE49 -gneE48 -gneE47 -gneE46 -gneE33 -gneE18 -gneE16 gneE58"/>
    </person>
    <person id="108" type="ped" depart="3240.00">
        <walk edges="-gneE62 -gneE61 -gneE35 499172074#8 499172074#9 499172074#10 499172074#11 499172074#12"/>
    </person>
    <person id="109" type="ped" depart="3270.00">
        <walk edges="-gneE37 -gneE36 -gneE35 -gneE34 -gneE24 -gneE22 -gneE23"/>
    </person>
    <person id="110" type="ped" depart="3300.00">
        <walk edges="-458448234 -458448241#1 -458448241#0 -259914621 -gneE30 -gneE29 -gneE26 259882488 -5672752#0"/>
    </person>
    <person id="111" type="ped" depart="3330.00">
        <walk edges="-gneE51 -gneE52 -gneE53 -gneE54 gneE55"/>
    </person>
    <person id="112" type="ped" depart="3360.00">
        <walk edges="gneE51 gneE48"/>
    </person>
    <person id="113" type="ped" depart="3390.00">
        <walk edges="-gneE70 -gneE47 -gneE46 499172074#10 499172074#9 499172074#8 499172074#7 499172074#5 -gneE40 gneE21"/>
    </person>
    <person id="114" type="ped" depart="3420.00">
        <walk edges="-gneE62 -gneE64"/>
    </person>
    <person id="115" type="ped" depart="3450.00">
        <walk edges="gneE24 -gneE33 -gneE46 -gneE47 -gneE48 gneE52"/>
    </person>
    <person id="116" type="ped" depart="3480.00">
        <walk edges="499172074#9 499172074#8 499172074#7 499172074#5 499172074#2 499172074#1"/>
    </person>
    <person id="117" type="ped" depart="3510.00">
        <walk edges="gneE36 -gneE35 -gneE34 -gneE20 -gneE14 -gneE9 gneE58"/>
    </person>
    <person id="118" type="ped" depart="3540.00">
        <walk edges="gneE25 -gneE24 -gneE33 -gneE46"/>
    </person>
    <person id="119" type="ped" depart="3570.00">
        <walk edges="gneE46 499172074#10 499172074#9 499172074#8 499172074#7 499172074#5 -gneE40 -gneE29 -477823038 458452177#5 -458448233 -458448238 -496986969#0"/>
    </person>
    <person id="120" type="ped" depart="3600.00">
        <walk edges="499172074#1 -458448241#0 -259914621 -gneE31 458452177#4"/>
    </person>
    <person id="121" type="ped" depart="3630.00">
        <walk edges="-gneE20 -gneE25 259882488"/>
    </person>
    <person id="122" type="ped" depart="3660.00">
        <walk edges="gneE69 -gneE36 -gneE35 -gneE34 -gneE20 -gneE14 -gneE8"/>
    </person>
    <person id="123" type="ped" depart="3690.00">
        <walk edges="499172074#12 499172074#11 -gneE46 -gneE59"/>
    </person>
    <person id="124" type="ped" depart="3720.00">
        <walk edges="gneE26 -gneE25 -gneE34 499172074#8 499172074#9 -458642436"/>
    </person>
    <person id="125" type="ped" depart="3750.00">
        <walk edges="gneE21 -gneE40 499172074#5 499172074#7 499172074#8 499172074#9 499172074#10 -gneE33"/>
    </person>
    <person id="126" type="ped" depart="3780.00">
        <walk edges="-gneE32 -gneE31 -gneE30 -gneE29 -gneE40 -gneE41 -gneE42 gneE43"/>
    </person>
    <person id="127" type="ped" depart="3810.00">
        <walk edges="196116988#0 -gneE6 -gneE17 -gneE21 -gneE29 -gneE30 -259914621"/>
    </person>
    <person id="128" type="ped" depart="3840.00">
        <walk edges="gneE59 -gneE60 -gneE36"/>
    </person>
    <person id="129" type="ped" depart="3870.00">
        <walk edges="5672752#0 -gneE21 -gneE26 -gneE25 -gneE20"/>
    </person>
    <person id="130" type="ped" depart="3900.00">
        <walk edges="196116988#0 -gneE6 -gneE17 -gneE21 -gneE40 -gneE41 gneE42"/>
    </person>
    <person id="131" type="ped" depart="3930.00">
        <walk edges="gneE54 -gneE43 -gneE42 -gneE41 -gneE40 -gneE21 -gneE17 gneE8"/>
    </person>
    <person id="132" type="ped" depart="3960.00">
        <walk edges="-gneE7 -gneE17 -gneE21"/>
    </person>
    <person id="133" type="ped" depart="3990.00">
        <walk edges="gneE7 -gneE17 -gneE21 -gneE40 -gneE41 -gneE42 gneE5"/>
    </person>
    <person id="134" type="ped" depart="4020.00">
        <walk edges="-gneE69 -gneE47 -gneE46 -gneE33 gneE24"/>
    </person>
    <person id="135" type="ped" depart="4050.00">
        <walk edges="-420899373 -gneE6 -gneE17 -gneE21 -gneE40 499172074#5 499172074#7 499172074#8 499172074#9 499172074#10 -gneE46 -gneE47 -gneE48 -gneE51"/>
    </person>
    <person id="136" type="ped" depart="4080.00">
        <walk edges="496986969#0 -458448238 -458448233 458452177#5 -477823038 -gneE29 -gneE40 -gneE41 -gneE62 -gneE61 -gneE60"/>
    </person>
    <person id="137" type="ped" depart="4110.00">
        <walk edges="-gneE54 -gneE53 -gneE37 -gneE36 -gneE35 499172074#8 499172074#9 -458642436"/>
    </person>
    <person id="138" type="ped" depart="4140.00">
        <walk edges="196116988#0 -gneE6 -gneE17 -gneE21 -gneE40 499172074#5 499172074#7 499172074#8 499172074#9 499172074#10 -gneE46 -gneE47 -gneE69"/>
    </person>
    <person id="139" type="ped" depart="4170.00">
        <walk edges="-458448234 -458448241#1 499172074#2 -gneE40"/>
    </person>
    <person id="140" type="ped" depart="4200.00">
        <walk edges="-gneE8 gneE6"/>
    </person>
    <person id="141" type="ped" depart="4230.00">
        <walk edges="-gneE65 -458448234 -458448241#1 -458448241#0 -259914621 -gneE30 -gneE29 -gneE21 -gneE17 -gneE6 -420899373"/>
    </person>
    <person id="142" type="ped" depart="4260.00">
        <walk edges="-gneE18 -gneE16 -gneE9 gneE14"/>
    </person>
    <person id="143" type="ped" depart="4290.00">
        <walk edges="-gneE35 -gneE61 -gneE62 -gneE41 -gneE40 -gneE29 -477823038 458452177#5 -458448233 -458448238 496986969#0"/>
    </person>
    <person id="144" type="ped" depart="4320.00">
        <walk edges="496986969#1 -458448238 -458448233 458452177#5 -477823038 -gneE29 -gneE40 499172074#5 499172074#7 499172074#8 499172074#9 499172074#10 -gneE46 -gneE47 -gneE48 gneE49 -gneE50"/>
    </person>
    <person id="145" type="ped" depart="4350.00">
        <walk edges="gneE36 -gneE37 -gneE53 -gneE54 -gneE55"/>
    </person>
    <person id="146" type="ped" depart="4380.00">
        <walk edges="-gneE29 -gneE40 499172074#5 499172074#7 499172074#8 499172074#9 499172074#10 499172074#11 499172074#12"/>
    </person>
    <person id="147" type="ped" depart="4410.00">
        <walk edges="gneE49 -gneE48 -gneE47 -gneE46 499172074#10 499172074#9 499172074#8 -gneE34"/>
    </person>
    <person id="148" type="ped" depart="4440.00">
        <walk edges="-gneE20 -gneE25 -gneE26 gneE21"/>
    </person>
    <person id="149" type="ped" depart="4470.00">
        <walk edges="gneE49 -gneE48 -gneE47 -gneE46 499172074#10 499172074#9 499172074#8 499172074#7 499172074#5 -gneE40 -gneE21 -gneE17 -gneE6 -420899373"/>
    </person>
    <person id="150" type="ped" depart="4500.00">
        <walk edges="gneE48 -gneE47 -gneE46 -gneE33 gneE18"/>
    </person>
    <person id="151" type="ped" depart="4530.00">
        <walk edges="gneE22 -gneE24 -gneE25 -gneE26 -gneE29 -477823038 458452177#5 -458448233 -458448238 -496986969#0"/>
    </person>
    <person id="152" type="ped" depart="4560.00">
        <walk edges="-gneE70 -gneE69 -gneE67 -gneE66 -gneE5"/>
    </person>
    <person id="153" type="ped" depart="4590.00">
        <walk edges="-gneE24 -gneE33 -gneE46 -gneE47 -gneE48 -gneE51"/>
    </person>
    <person id="154" type="ped" depart="4620.00">
        <walk edges="gneE62 -gneE61 -gneE60 gneE59"/>
    </person>
    <person id="155" type="ped" depart="4650.00">
        <walk edges="-gneE17 -496986969#1 -496986969#0"/>
    </person>
    <person id="156" type="ped" depart="4680.00">
        <walk edges="-gneE51 gneE52"/>
    </person>
    <person id="157" type="ped" depart="4710.00">
        <walk edges="gneE55 -gneE54 -gneE53 -gneE37 -gneE36 -gneE35 -gneE34 -gneE20 -196117083 -505582406#0 -505582406#1 264211595"/>
    </person>
    <person id="158" type="ped" depart="4740.00">
        <walk edges="gneE23 -gneE22 -gneE24 -gneE34 -gneE35 -gneE61 -gneE62 -gneE64 gneE65"/>
    </person>
    <person id="159" type="ped" depart="4770.00">
        <walk edges="gneE65 -gneE64 -gneE62 -gneE61 -gneE60 -gneE47 -gneE48 gneE49"/>
    </person>
    <person id="160" type="ped" depart="4800.00">
        <walk edges="-gneE55 -gneE54 -gneE53 -gneE52"/>
    </person>
    <person id="161" type="ped" depart="4830.00">
        <walk edges="-gneE36 -gneE67 -gneE66 -gneE42 -gneE64 -gneE65"/>
    </person>
    <person id="162" type="ped" depart="4860.00">
        <walk edges="gneE55 -gneE54 -gneE53 -gneE37 -gneE69 -gneE70"/>
    </person>
    <person id="163" type="ped" depart="4890.00">
        <walk edges="-gneE66 -gneE67 -gneE69 -gneE48 gneE51"/>
    </person>
    <person id="164" type="ped" depart="4920.00">
        <walk edges="gneE36 -gneE67 -gneE66 gneE5"/>
    </person>
    <person id="165" type="ped" depart="4950.00">
        <walk edges="gneE70 -gneE47 -gneE46 -gneE33 -gneE18 -505582406#0 505582406#1"/>
    </person>
    <person id="166" type="ped" depart="4980.00">
        <walk edges="gneE9 -gneE16 gneE18"/>
    </person>
    <person id="167" type="ped" depart="5010.00">
        <walk edges="499172074#1 499172074#2 -gneE41 -gneE42 -gneE66 -gneE67 -gneE36"/>
    </person>
    <person id="168" type="ped" depart="5040.00">
        <walk edges="-gneE59"/>
    </person>
    <person id="169" type="ped" depart="5070.00">
        <walk edges="gneE40 -gneE29 -gneE30 -gneE31 gneE32"/>
    </person>
    <person id="170" type="ped" depart="5100.00">
        <walk edges="gneE14 -gneE9 -gneE16 -505582406#0 -505582406#1"/>
    </person>
    <person id="171" type="ped" depart="5130.00">
        <walk edges="-gneE70 -gneE47 -gneE46 -gneE33 -gneE18 -gneE16 gneE9"/>
    </person>
    <person id="172" type="ped" depart="5160.00">
        <walk edges="gneE46 -gneE47"/>
    </person>
    <person id="173" type="ped" depart="5190.00">
        <walk edges="-gneE55 gneE55"/>
    </person>
    <person id="174" type="ped" depart="5220.00">
        <walk edges="-gneE62 -gneE42 -gneE66 -gneE67"/>
    </person>
    <person id="175" type="ped" depart="5250.00">
        <walk edges="-gneE51 -gneE48 -gneE47 -gneE60"/>
    </person>
    <person id="176" type="ped" depart="5280.00">
        <walk edges="-gneE34 499172074#7 499172074#5 -gneE40 -gneE21 -496986969#1"/>
    </person>
    <person id="177" type="ped" depart="5310.00">
        <walk edges="gneE50 gneE49 -gneE48 -gneE47 -gneE46 499172074#10 499172074#9 499172074#8 499172074#7 499172074#5 -gneE40 -gneE21 -gneE17 -gneE6 -196116988#0"/>
    </person>
    <person id="178" type="ped" depart="5340.00">
        <walk edges="-gneE8 -gneE9 -gneE16 -gneE18 -gneE33 -gneE46 -gneE47 -gneE48 -gneE51"/>
    </person>
    <person id="179" type="ped" depart="5370.00">
        <walk edges="gneE51 -gneE48 -gneE47 -gneE60 -gneE61 -gneE62 -gneE64"/>
    </person>
    <person id="180" type="ped" depart="5400.00">
        <walk edges="458448238 -458448233 458452177#5 -477823038 -gneE29 -gneE40 499172074#5 499172074#7 499172074#8 499172074#9 499172074#10 499172074#11 499172074#12"/>
    </person>
    <person id="181" type="ped" depart="5430.00">
        <walk edges="-gneE9 -gneE16"/>
    </person>
    <person id="182" type="ped" depart="5460.00">
        <walk edges="-gneE7 -gneE6"/>
    </person>
    <person id="183" type="ped" depart="5490.00">
        <walk edges="-496986969#0 -496986969#1 -5672752#0 5672752#1 -5672752#1"/>
    </person>
    <person id="184" type="ped" depart="5520.00">
        <walk edges="-gneE40 -gneE41 -gneE42 -gneE43 -gneE54 -gneE53 -gneE38"/>
    </person>
    <person id="185" type="ped" depart="5550.00">
        <walk edges="gneE7 -gneE8 -gneE9 gneE56"/>
    </person>
    <person id="186" type="ped" depart="5580.00">
        <walk edges="-gneE35 -gneE34 -gneE25 gneE26"/>
    </person>
    <person id="187" type="ped" depart="5610.00">
        <walk edges="gneE59 -gneE46 -gneE33 -gneE18 -gneE16 -gneE56 -gneE57 420899373"/>
    </person>
    <person id="188" type="ped" depart="5640.00">
        <walk edges="-gneE44 -gneE43 -gneE42 gneE62"/>
    </person>
    <person id="189" type="ped" depart="5670.00">
        <walk edges="gneE52 -gneE48 -gneE47 -gneE46 499172074#10 499172074#9 499172074#8 499172074#7 499172074#5 -gneE40 -gneE21 gneE17"/>
    </person>
    <person id="190" type="ped" depart="5700.00">
        <walk edges="gneE43 -gneE55"/>
    </person>
    <person id="191" type="ped" depart="5730.00">
        <walk edges="gneE5 -gneE66 -gneE67 -gneE36 -gneE35 -gneE34 -gneE20"/>
    </person>
    <person id="192" type="ped" depart="5760.00">
        <walk edges="-gneE69 -gneE67 gneE66"/>
    </person>
    <person id="193" type="ped" depart="5790.00">
        <walk edges="-gneE7 -gneE17 -5672752#0 5672752#1 -196117083"/>
    </person>
    <person id="194" type="ped" depart="5820.00">
        <walk edges="-gneE20 -gneE25 -gneE26 -gneE21 -gneE17 gneE7"/>
    </person>
    <person id="195" type="ped" depart="5850.00">
        <walk edges="gneE52 -gneE53 -gneE54 gneE44"/>
    </person>
    <person id="196" type="ped" depart="5880.00">
        <walk edges="-gneE5 -gneE42 -gneE41 -gneE40 -gneE21 -496986969#1"/>
    </person>
    <person id="197" type="ped" depart="5910.00">
        <walk edges="gneE59 -gneE46 499172074#10 499172074#9 499172074#8 499172074#7 499172074#5 499172074#2 -458448241#0 -259914621"/>
    </person>
    <person id="199" type="ped" depart="5970.00">
        <walk edges="gneE46 499172074#10 499172074#9 499172074#8 499172074#7 499172074#5 -gneE40 -gneE21 -gneE17 -gneE6 -196116988#0"/>
    </person>
    <person id="200" type="ped" depart="6000.00">
        <walk edges="gneE70 -gneE47 -gneE46 -gneE33 -gneE18 -505582406#0 -505582406#1"/>
    </person>
    <person id="201" type="ped" depart="6030.00">