<?xml version="1.0" encoding="UTF-8"?>

<!-- generated on Sat Dec 22 22:29:47 2018 by SUMO duarouter Version 0.32.0
<?xml version="1.0" encoding="UTF-8"?>

<configuration xmlns:xsi="http://www.w3.org/2001/XMLSchema-instance" xsi:noNamespaceSchemaLocation="http://sumo.dlr.de/xsd/duarouterConfiguration.xsd">

    <input>
        <net-file value="env1.net.xml"/>
        <additional-files value="car.add.xml"/>
        <route-files value="trips.trips.xml"/>
    </input>

    <output>
        <output-file value="cars.rou.xml"/>
        <alternatives-output value="cars.rou.alt.xml"/>
    </output>

    <processing>
        <ignore-errors value="true"/>
    </processing>

    <time>
        <begin value="0"/>
        <end value="50000.0"/>
    </time>

    <report>
        <no-warnings value="true"/>
        <no-step-log value="true"/>
    </report>

</configuration>
-->

<routes xmlns:xsi="http://www.w3.org/2001/XMLSchema-instance" xsi:noNamespaceSchemaLocation="http://sumo.dlr.de/xsd/routes_file.xsd">
    <vType id="car" length="4.50" speedFactor="normc(1.00,0.20,0.20,2.00)" vClass="passenger" accel="2.0"/>
    <vehicle id="0" type="car" depart="0.00" departLane="best" departSpeed="max">
        <route edges="gneE21 gneE22 gneE10 gneE27 gneE28"/>
    </vehicle>
    <vehicle id="2" type="car" depart="1.20" departLane="best" departSpeed="max">
        <route edges="-gneE2"/>
    </vehicle>
    <vehicle id="10" type="car" depart="6.00" departLane="best" departSpeed="max">
        <route edges="gneE15 gneE16 gneE17 gneE18 gneE19 gneE46"/>
    </vehicle>
    <vehicle id="11" type="car" depart="6.60" departLane="best" departSpeed="max">
        <route edges="gneE9 gneE10 gneE11 gneE12 gneE13 gneE45 gneE48"/>
    </vehicle>
    <vehicle id="14" type="car" depart="8.40" departLane="best" departSpeed="max">
        <route edges="gneE2 gneE3 gneE4 gneE5 gneE7 gneE44 gneE45 gneE48"/>
    </vehicle>
    <vehicle id="18" type="car" depart="10.80" departLane="best" departSpeed="max">
        <route edges="-gneE24 gneE16 -gneE27 -gneE26 gneE4 gneE5 gneE7 gneE8"/>
    </vehicle>
    <vehicle id="20" type="car" depart="12.00" departLane="best" departSpeed="max">
        <route edges="-gneE24 gneE16 gneE17 gneE18 gneE41"/>
    </vehicle>
    <vehicle id="21" type="car" depart="12.60" departLane="best" departSpeed="max">
        <route edges="-gneE24 gneE16 gneE17 gneE18 gneE41"/>
    </vehicle>
    <vehicle id="35" type="car" depart="21.00" departLane="best" departSpeed="max">
        <route edges="gneE15 gneE16 -gneE27 -gneE26 gneE4 gneE5 gneE7 gneE8"/>
    </vehicle>
    <vehicle id="37" type="car" depart="22.20" departLane="best" departSpeed="max">
        <route edges="-gneE8 -gneE7 -gneE5 -gneE4 -gneE3 -gneE2"/>
    </vehicle>
    <vehicle id="41" type="car" depart="24.60" departLane="best" departSpeed="max">
        <route edges="-gneE32 -gneE31 gneE12 gneE13 gneE47"/>
    </vehicle>
    <vehicle id="48" type="car" depart="28.80" departLane="best" departSpeed="max">
        <route edges="-gneE28"/>
    </vehicle>
    <vehicle id="52" type="car" depart="31.20" departLane="best" departSpeed="max">
        <route edges="gneE25 gneE4 gneE5 gneE7 gneE44 gneE47"/>
    </vehicle>
    <vehicle id="54" type="car" depart="32.40" departLane="best" departSpeed="max">
        <route edges="-gneE48 -gneE19 -gneE18 -gneE17 -gneE16 gneE24"/>
    </vehicle>
    <vehicle id="56" type="car" depart="33.60" departLane="best" departSpeed="max">
        <route edges="gneE2 gneE3 gneE4 gneE5 gneE7 gneE44 gneE47"/>
    </vehicle>
    <vehicle id="61" type="car" depart="36.60" departLane="best" departSpeed="max">
        <route edges="gneE29 -gneE4 gneE26 -gneE10 -gneE9"/>
    </vehicle>
    <vehicle id="65" type="car" depart="39.00" departLane="best" departSpeed="max">
        <route edges="gneE9 gneE10 -gneE26 gneE4 -gneE29"/>
    </vehicle>
    <vehicle id="66" type="car" depart="39.60" departLane="best" departSpeed="max">
        <route edges="-gneE8 gneE44 gneE45 gneE48"/>
    </vehicle>
    <vehicle id="68" type="car" depart="40.80" departLane="best" departSpeed="max">
        <route edges="gneE15 gneE16 -gneE27 -gneE26 gneE4 gneE5 -gneE38"/>
    </vehicle>
    <vehicle id="69" type="car" depart="41.40" departLane="best" departSpeed="max">
        <route edges="-gneE32 gneE18 gneE19 gneE46"/>
    </vehicle>
    <vehicle id="72" type="car" depart="43.20" departLane="best" departSpeed="max">
        <route edges="gneE2 gneE3 gneE4 gneE5 gneE7 gneE8"/>
    </vehicle>
    <vehicle id="79" type="car" depart="47.40" departLane="best" departSpeed="max">
        <route edges="-gneE24 -gneE23 -gneE9"/>
    </vehicle>
    <vehicle id="88" type="car" depart="52.80" departLane="best" departSpeed="max">
        <route edges="-gneE48 -gneE19 -gneE18 gneE32"/>
    </vehicle>
    <vehicle id="91" type="car" depart="54.60" departLane="best" departSpeed="max">
        <route edges="gneE2 gneE3 gneE4 gneE5 gneE7 gneE44 gneE45 gneE46"/>
    </vehicle>
    <vehicle id="94" type="car" depart="56.40" departLane="best" departSpeed="max">
        <route edges="gneE15 gneE16 -gneE27 -gneE10 gneE23 -gneE15"/>
    </vehicle>
    <vehicle id="95" type="car" depart="57.00" departLane="best" departSpeed="max">
        <route edges="gneE38 -gneE5 -gneE4 gneE26 -gneE10 -gneE9"/>
    </vehicle>
    <vehicle id="99" type="car" depart="59.40" departLane="best" departSpeed="max">
        <route edges="gneE25 -gneE3 -gneE21"/>
    </vehicle>
    <vehicle id="103" type="car" depart="61.80" departLane="best" departSpeed="max">
        <route edges="gneE2 gneE22 -gneE9"/>
    </vehicle>
    <vehicle id="104" type="car" depart="62.40" departLane="best" departSpeed="max">
        <route edges="gneE2 gneE22 gneE23 -gneE15"/>
    </vehicle>
    <vehicle id="107" type="car" depart="64.20" departLane="best" departSpeed="max">
        <route edges="gneE9"/>
    </vehicle>
    <vehicle id="110" type="car" depart="66.00" departLane="best" departSpeed="max">
        <route edges="gneE2 gneE22 -gneE9"/>
    </vehicle>
    <vehicle id="111" type="car" depart="66.60" departLane="best" departSpeed="max">
        <route edges="-gneE47 gneE45 gneE48"/>
    </vehicle>
    <vehicle id="119" type="car" depart="71.40" departLane="best" departSpeed="max">
        <route edges="gneE2 gneE22 -gneE9"/>
    </vehicle>
    <vehicle id="121" type="car" depart="72.60" departLane="best" departSpeed="max">
        <route edges="-gneE8 -gneE7 gneE39 gneE13 -gneE44 gneE8"/>
    </vehicle>
    <vehicle id="125" type="car" depart="75.00" departLane="best" departSpeed="max">
        <route edges="gneE9 gneE10 -gneE26 gneE4 gneE5 gneE7 -gneE43"/>
    </vehicle>
    <vehicle id="127" type="car" depart="76.20" departLane="best" departSpeed="max">
        <route edges="gneE29 gneE5 gneE7 gneE44 gneE47"/>
    </vehicle>
    <vehicle id="130" type="car" depart="78.00" departLane="best" departSpeed="max">
        <route edges="-gneE8 -gneE7 -gneE5 -gneE4 gneE26 -gneE10 -gneE9"/>
    </vehicle>
    <vehicle id="136" type="car" depart="81.60" departLane="best" departSpeed="max">
        <route edges="-gneE24 -gneE23 -gneE22 -gneE2"/>
    </vehicle>
    <vehicle id="138" type="car" depart="82.80" departLane="best" departSpeed="max">
        <route edges="gneE48"/>
    </vehicle>
    <vehicle id="144" type="car" depart="86.40" departLane="best" departSpeed="max">
        <route edges="-gneE41 -gneE40 -gneE12 -gneE11 -gneE10 -gneE9"/>
    </vehicle>
    <vehicle id="147" type="car" depart="88.20" departLane="best" departSpeed="max">
        <route edges="-gneE24 -gneE23 -gneE9"/>
    </vehicle>
    <vehicle id="150" type="car" depart="90.00" departLane="best" departSpeed="max">
        <route edges="-gneE8"/>
    </vehicle>
    <vehicle id="154" type="car" depart="92.40" departLane="best" departSpeed="max">
        <route edges="gneE2 gneE22 -gneE9"/>
    </vehicle>
    <vehicle id="157" type="car" depart="94.20" departLane="best" departSpeed="max">
        <route edges="gneE9 gneE10 -gneE26 -gneE3 gneE22 -gneE9"/>
    </vehicle>
    <vehicle id="161" type="car" depart="96.60" departLane="best" departSpeed="max">
        <route edges="-gneE47 -gneE13 -gneE39 gneE7 gneE44 gneE47"/>
    </vehicle>
    <vehicle id="164" type="car" depart="98.40" departLane="best" departSpeed="max">
        <route edges="gneE15 gneE16 gneE17 gneE18 gneE19 gneE48"/>
    </vehicle>
    <vehicle id="167" type="car" depart="100.20" departLane="best" departSpeed="max">
        <route edges="gneE2"/>
    </vehicle>
    <vehicle id="170" type="car" depart="102.00" departLane="best" departSpeed="max">
        <route edges="-gneE8"/>
    </vehicle>
    <vehicle id="171" type="car" depart="102.60" departLane="best" departSpeed="max">
        <route edges="-gneE47 -gneE13 -gneE12 -gneE11 -gneE10 -gneE9"/>
    </vehicle>
    <vehicle id="179" type="car" depart="107.40" departLane="best" departSpeed="max">
        <route edges="-gneE28 -gneE27 -gneE10 -gneE22 -gneE2"/>
    </vehicle>
    <vehicle id="180" type="car" depart="108.00" departLane="best" departSpeed="max">
        <route edges="gneE9 gneE23 gneE24"/>
    </vehicle>
    <vehicle id="181" type="car" depart="108.60" departLane="best" departSpeed="max">
        <route edges="-gneE8"/>
    </vehicle>
    <vehicle id="183" type="car" depart="109.80" departLane="best" departSpeed="max">
        <route edges="gneE21 -gneE2"/>
    </vehicle>
    <vehicle id="188" type="car" depart="112.80" departLane="best" departSpeed="max">
        <route edges="-gneE46 -gneE45 -gneE44 -gneE7 -gneE5 -gneE4 -gneE3 -gneE2"/>
    </vehicle>
    <vehicle id="193" type="car" depart="115.80" departLane="best" departSpeed="max">
        <route edges="-gneE48 -gneE45 -gneE13 gneE40 gneE19 gneE48"/>
    </vehicle>
    <vehicle id="194" type="car" depart="116.40" departLane="best" departSpeed="max">
        <route edges="-gneE24 -gneE23 -gneE22 -gneE2"/>
    </vehicle>
    <vehicle id="202" type="car" depart="121.20" departLane="best" departSpeed="max">
        <route edges="gneE2 gneE22 gneE23 gneE24"/>
    </vehicle>
    <vehicle id="205" type="car" depart="123.00" departLane="best" departSpeed="max">
        <route edges="gneE9 -gneE22 -gneE2"/>
    </vehicle>
    <vehicle id="207" type="car" depart="124.20" departLane="best" departSpeed="max">
        <route edges="gneE15 -gneE23 -gneE9"/>
    </vehicle>
    <vehicle id="208" type="car" depart="124.80" departLane="best" departSpeed="max">
        <route edges="gneE43 -gneE7 gneE39 gneE40 gneE41"/>
    </vehicle>
    <vehicle id="209" type="car" depart="125.40" departLane="best" departSpeed="max">
        <route edges="gneE29 gneE5 gneE7 gneE44 gneE47"/>
    </vehicle>
    <vehicle id="212" type="car" depart="127.20" departLane="best" departSpeed="max">
        <route edges="-gneE47 gneE45 gneE48"/>
    </vehicle>
    <vehicle id="214" type="car" depart="128.40" departLane="best" departSpeed="max">
        <route edges="gneE38 -gneE5 -gneE4 gneE26 -gneE10 -gneE9"/>
    </vehicle>
    <vehicle id="215" type="car" depart="129.00" departLane="best" departSpeed="max">
        <route edges="-gneE47"/>
    </vehicle>
    <vehicle id="216" type="car" depart="129.60" departLane="best" departSpeed="max">
        <route edges="gneE9 gneE10 gneE11 gneE12 gneE13 gneE45 gneE48"/>
    </vehicle>
    <vehicle id="219" type="car" depart="131.40" departLane="best" departSpeed="max">
        <route edges="gneE2"/>
    </vehicle>
    <vehicle id="222" type="car" depart="133.20" departLane="best" departSpeed="max">
        <route edges="gneE25 gneE4 gneE30 gneE31 gneE32"/>
    </vehicle>
    <vehicle id="224" type="car" depart="134.40" departLane="best" departSpeed="max">
        <route edges="gneE29 -gneE4 gneE26 -gneE10 -gneE9"/>
    </vehicle>
    <vehicle id="226" type="car" depart="135.60" departLane="best" departSpeed="max">
        <route edges="gneE21 gneE3 gneE4 gneE5 gneE7 gneE44 gneE47"/>
    </vehicle>
    <vehicle id="228" type="car" depart="136.80" departLane="best" departSpeed="max">
        <route edges="-gneE15"/>
    </vehicle>
    <vehicle id="229" type="car" depart="137.40" departLane="best" departSpeed="max">
        <route edges="gneE2 gneE3 gneE4 gneE5 gneE7 gneE44 gneE45 gneE46"/>
    </vehicle>
    <vehicle id="230" type="car" depart="138.00" departLane="best" departSpeed="max">
        <route edges="gneE15 gneE16 gneE17 gneE18 gneE19 gneE48"/>
    </vehicle>
    <vehicle id="231" type="car" depart="138.60" departLane="best" departSpeed="max">
        <route edges="-gneE8 gneE44 gneE47"/>
    </vehicle>
    <vehicle id="234" type="car" depart="140.40" departLane="best" departSpeed="max">
        <route edges="-gneE24 -gneE23 -gneE9"/>
    </vehicle>
    <vehicle id="237" type="car" depart="142.20" departLane="best" departSpeed="max">
        <route edges="-gneE47 -gneE44 gneE8"/>
    </vehicle>
    <vehicle id="239" type="car" depart="143.40" departLane="best" departSpeed="max">
        <route edges="gneE21 gneE3 gneE4 gneE5 gneE7 gneE44 gneE45 gneE48"/>
    </vehicle>
    <vehicle id="245" type="car" depart="147.00" departLane="best" departSpeed="max">
        <route edges="gneE38 gneE39 gneE13 -gneE44 -gneE7 -gneE38"/>
    </vehicle>
    <vehicle id="246" type="car" depart="147.60" departLane="best" departSpeed="max">
        <route edges="-gneE47 -gneE13 -gneE39 gneE7 gneE44 gneE47"/>
    </vehicle>
    <vehicle id="249" type="car" depart="149.40" departLane="best" departSpeed="max">
        <route edges="-gneE47 -gneE44 -gneE7 -gneE5 -gneE4 -gneE3 -gneE2"/>
    </vehicle>
    <vehicle id="256" type="car" depart="153.60" departLane="best" departSpeed="max">
        <route edges="-gneE8 -gneE7 -gneE5 -gneE4 gneE26 gneE27 gneE28"/>
    </vehicle>
    <vehicle id="257" type="car" depart="154.20" departLane="best" departSpeed="max">
        <route edges="-gneE47 -gneE13 -gneE12 -gneE11 gneE27 -gneE16 -gneE15"/>
    </vehicle>
    <vehicle id="260" type="car" depart="156.00" departLane="best" departSpeed="max">
        <route edges="-gneE48 -gneE45 -gneE13 gneE40 gneE19 gneE48"/>
    </vehicle>
    <vehicle id="262" type="car" depart="157.20" departLane="best" departSpeed="max">
        <route edges="-gneE8 -gneE7 -gneE5 -gneE4 gneE26 gneE27 -gneE16 -gneE15"/>
    </vehicle>
    <vehicle id="267" type="car" depart="160.20" departLane="best" departSpeed="max">
        <route edges="gneE47"/>
    </vehicle>
    <vehicle id="272" type="car" depart="163.20" departLane="best" departSpeed="max">
        <route edges="gneE2"/>
    </vehicle>
    <vehicle id="273" type="car" depart="163.80" departLane="best" departSpeed="max">
        <route edges="gneE9 gneE10 gneE11 gneE12 gneE13 gneE47"/>
    </vehicle>
    <vehicle id="274" type="car" depart="164.40" departLane="best" departSpeed="max">
        <route edges="gneE38 -gneE5 -gneE4 -gneE3 -gneE21"/>
    </vehicle>
    <vehicle id="277" type="car" depart="166.20" departLane="best" departSpeed="max">
        <route edges="gneE38 -gneE5 -gneE4 -gneE3 -gneE2"/>
    </vehicle>
    <vehicle id="278" type="car" depart="166.80" departLane="best" departSpeed="max">
        <route edges="gneE2 gneE22 gneE23 -gneE15"/>
    </vehicle>
    <vehicle id="280" type="car" depart="168.00" departLane="best" departSpeed="max">
        <route edges="-gneE47 -gneE13 -gneE12 -gneE11 gneE27 -gneE16 -gneE15"/>
    </vehicle>
    <vehicle id="288" type="car" depart="172.80" departLane="best" departSpeed="max">
        <route edges="gneE2 gneE3 gneE4 gneE5 gneE7 -gneE43"/>
    </vehicle>
    <vehicle id="290" type="car" depart="174.00" departLane="best" departSpeed="max">
        <route edges="gneE2"/>
    </vehicle>
    <vehicle id="297" type="car" depart="178.20" departLane="best" departSpeed="max">
        <route edges="gneE2 gneE3 gneE4 gneE5 gneE7 gneE44 gneE45 gneE48"/>
    </vehicle>
    <vehicle id="298" type="car" depart="178.80" departLane="best" departSpeed="max">
        <route edges="gneE2 gneE22 gneE23 -gneE15"/>
    </vehicle>
    <vehicle id="304" type="car" depart="182.40" departLane="best" departSpeed="max">
        <route edges="-gneE8 gneE44 gneE45 gneE48"/>
    </vehicle>
    <vehicle id="305" type="car" depart="183.00" departLane="best" departSpeed="max">
        <route edges="gneE9 gneE10 -gneE26 gneE4 gneE5 -gneE38"/>
    </vehicle>
    <vehicle id="307" type="car" depart="184.20" departLane="best" departSpeed="max">
        <route edges="gneE15 gneE16 gneE17 gneE18 gneE19 gneE48"/>
    </vehicle>
    <vehicle id="314" type="car" depart="188.40" departLane="best" departSpeed="max">
        <route edges="gneE15 -gneE23 -gneE9"/>
    </vehicle>
    <vehicle id="320" type="car" depart="192.00" departLane="best" departSpeed="max">
        <route edges="gneE9 gneE10 -gneE26 gneE4 gneE5 -gneE38"/>
    </vehicle>
    <vehicle id="323" type="car" depart="193.80" departLane="best" departSpeed="max">
        <route edges="-gneE47 gneE45 gneE48"/>
    </vehicle>
    <vehicle id="327" type="car" depart="196.20" departLane="best" departSpeed="max">
        <route edges="gneE15 gneE24"/>
    </vehicle>
    <vehicle id="331" type="car" depart="198.60" departLane="best" departSpeed="max">
        <route edges="-gneE8 -gneE7 -gneE5 -gneE4 gneE26 -gneE10 -gneE9"/>
    </vehicle>
    <vehicle id="334" type="car" depart="200.40" departLane="best" departSpeed="max">
        <route edges="gneE25 gneE4 gneE5 gneE7 gneE44 gneE45 gneE48"/>
    </vehicle>
    <vehicle id="335" type="car" depart="201.00" departLane="best" departSpeed="max">
        <route edges="gneE29 -gneE4 gneE26 gneE27 -gneE16 -gneE15"/>
    </vehicle>
    <vehicle id="337" type="car" depart="202.20" departLane="best" departSpeed="max">
        <route edges="-gneE9"/>
    </vehicle>
    <vehicle id="340" type="car" depart="204.00" departLane="best" departSpeed="max">
        <route edges="gneE15 gneE16 -gneE27 -gneE26 gneE4 gneE5 gneE7 gneE8"/>
    </vehicle>
    <vehicle id="344" type="car" depart="206.40" departLane="best" departSpeed="max">
        <route edges="-gneE32 gneE18 gneE19 gneE48"/>
    </vehicle>
    <vehicle id="349" type="car" depart="209.40" departLane="best" departSpeed="max">
        <route edges="gneE2 gneE3 gneE4 gneE30 gneE31 gneE32"/>
    </vehicle>
    <vehicle id="353" type="car" depart="211.80" departLane="best" departSpeed="max">
        <route edges="gneE43 -gneE7 -gneE5 -gneE4 -gneE3 -gneE2"/>
    </vehicle>
    <vehicle id="358" type="car" depart="214.80" departLane="best" departSpeed="max">
        <route edges="-gneE48 -gneE45 gneE47"/>
    </vehicle>
    <vehicle id="359" type="car" depart="215.40" departLane="best" departSpeed="max">
        <route edges="-gneE8 -gneE7 -gneE5 -gneE4 gneE26 gneE27 -gneE16 -gneE15"/>
    </vehicle>
    <vehicle id="361" type="car" depart="216.60" departLane="best" departSpeed="max">
        <route edges="-gneE47 -gneE13 -gneE12 -gneE11 -gneE10 -gneE9"/>
    </vehicle>
    <vehicle id="363" type="car" depart="217.80" departLane="best" departSpeed="max">
        <route edges="gneE38 -gneE5 -gneE4 -gneE3 -gneE2"/>
    </vehicle>
    <vehicle id="364" type="car" depart="218.40" departLane="best" departSpeed="max">
        <route edges="gneE15 gneE16 gneE17 gneE18 gneE41"/>
    </vehicle>
    <vehicle id="366" type="car" depart="219.60" departLane="best" departSpeed="max">
        <route edges="gneE48"/>
    </vehicle>
    <vehicle id="367" type="car" depart="220.20" departLane="best" departSpeed="max">
        <route edges="-gneE47 -gneE44 gneE8"/>
    </vehicle>
    <vehicle id="369" type="car" depart="221.40" departLane="best" departSpeed="max">
        <route edges="gneE15"/>
    </vehicle>
    <vehicle id="374" type="car" depart="224.40" departLane="best" departSpeed="max">
        <route edges="-gneE8 -gneE7 -gneE5 -gneE4 gneE26 -gneE10 -gneE9"/>
    </vehicle>
    <vehicle id="384" type="car" depart="230.40" departLane="best" departSpeed="max">
        <route edges="gneE2"/>
    </vehicle>
    <vehicle id="388" type="car" depart="232.80" departLane="best" departSpeed="max">
        <route edges="gneE8"/>
    </vehicle>
    <vehicle id="394" type="car" depart="236.40" departLane="best" departSpeed="max">
        <route edges="-gneE28 gneE17 gneE18 gneE41"/>
    </vehicle>
    <vehicle id="395" type="car" depart="237.00" departLane="best" departSpeed="max">
        <route edges="-gneE8 -gneE7 -gneE5 -gneE4 gneE26 gneE27 -gneE16 -gneE15"/>
    </vehicle>
    <vehicle id="397" type="car" depart="238.20" departLane="best" departSpeed="max">
        <route edges="gneE15 gneE16 -gneE27 -gneE26 gneE4 gneE5 -gneE38"/>
    </vehicle>
    <vehicle id="400" type="car" depart="240.00" departLane="best" departSpeed="max">
        <route edges="gneE15 gneE16 -gneE27 -gneE10 gneE23 -gneE15"/>
    </vehicle>
    <vehicle id="402" type="car" depart="241.20" departLane="best" departSpeed="max">
        <route edges="-gneE41 gneE19 gneE48"/>
    </vehicle>
    <vehicle id="406" type="car" depart="243.60" departLane="best" departSpeed="max">
        <route edges="gneE43 gneE44 gneE47"/>
    </vehicle>
    <vehicle id="416" type="car" depart="249.60" departLane="best" departSpeed="max">
        <route edges="gneE9 gneE10 gneE11 gneE12 gneE13 gneE45 gneE48"/>
    </vehicle>
    <vehicle id="417" type="car" depart="250.20" departLane="best" departSpeed="max">
        <route edges="-gneE2"/>
    </vehicle>
    <vehicle id="419" type="car" depart="251.40" departLane="best" departSpeed="max">
        <route edges="gneE48"/>
    </vehicle>
    <vehicle id="420" type="car" depart="252.00" departLane="best" departSpeed="max">
        <route edges="-gneE24 gneE16 gneE17 gneE18 gneE41"/>
    </vehicle>
    <vehicle id="422" type="car" depart="253.20" departLane="best" departSpeed="max">
        <route edges="gneE2 gneE22 -gneE9"/>
    </vehicle>
    <vehicle id="431" type="car" depart="258.60" departLane="best" departSpeed="max">
        <route edges="gneE47"/>
    </vehicle>
    <vehicle id="432" type="car" depart="259.20" departLane="best" departSpeed="max">
        <route edges="gneE2 gneE3 gneE26 -gneE10 -gneE22 -gneE2"/>
    </vehicle>
    <vehicle id="433" type="car" depart="259.80" departLane="best" departSpeed="max">
        <route edges="-gneE32 -gneE31 -gneE30 -gneE4 -gneE3 -gneE2"/>
    </vehicle>
    <vehicle id="437" type="car" depart="262.20" departLane="best" departSpeed="max">
        <route edges="gneE48"/>
    </vehicle>
    <vehicle id="444" type="car" depart="266.40" departLane="best" departSpeed="max">
        <route edges="-gneE47 -gneE13 -gneE12 -gneE11 gneE27 -gneE16 -gneE15"/>
    </vehicle>
    <vehicle id="447" type="car" depart="268.20" departLane="best" departSpeed="max">
        <route edges="-gneE47 -gneE44 -gneE7 -gneE5 -gneE29"/>
    </vehicle>
    <vehicle id="455" type="car" depart="273.00" departLane="best" departSpeed="max">
        <route edges="gneE15 -gneE23 -gneE9"/>
    </vehicle>
    <vehicle id="465" type="car" depart="279.00" departLane="best" departSpeed="max">
        <route edges="gneE15 gneE16 -gneE27 gneE11 gneE12 gneE13 gneE47"/>
    </vehicle>
    <vehicle id="471" type="car" depart="282.60" departLane="best" departSpeed="max">
        <route edges="-gneE32 -gneE31 -gneE30 -gneE4 -gneE25"/>
    </vehicle>
    <vehicle id="474" type="car" depart="284.40" departLane="best" departSpeed="max">
        <route edges="gneE43 -gneE7 -gneE5 -gneE4 gneE26 gneE27 -gneE16 gneE24"/>
    </vehicle>
    <vehicle id="477" type="car" depart="286.20" departLane="best" departSpeed="max">
        <route edges="gneE9 gneE10 -gneE26 gneE4 gneE5 gneE7 gneE8"/>
    </vehicle>
    <vehicle id="482" type="car" depart="289.20" departLane="best" departSpeed="max">
        <route edges="-gneE47 -gneE13 -gneE39 gneE7 gneE44 gneE47"/>
    </vehicle>
    <vehicle id="484" type="car" depart="290.40" departLane="best" departSpeed="max">
        <route edges="-gneE48 -gneE19 gneE41"/>
    </vehicle>
    <vehicle id="490" type="car" depart="294.00" departLane="best" departSpeed="max">
        <route edges="gneE15 -gneE23 -gneE22 -gneE21"/>
    </vehicle>
    <vehicle id="491" type="car" depart="294.60" departLane="best" departSpeed="max">
        <route edges="gneE9 gneE10 gneE11 gneE31 gneE32"/>
    </vehicle>
    <vehicle id="494" type="car" depart="296.40" departLane="best" departSpeed="max">
        <route edges="-gneE48 -gneE45 -gneE44 -gneE7 -gneE5 -gneE4 -gneE3 -gneE2"/>
    </vehicle>
    <vehicle id="495" type="car" depart="297.00" departLane="best" departSpeed="max">
        <route edges="gneE2 gneE3 gneE4 gneE5 gneE7 gneE44 gneE45 gneE48"/>
    </vehicle>
    <vehicle id="498" type="car" depart="298.80" departLane="best" departSpeed="max">
        <route edges="gneE9 gneE10 -gneE26 -gneE3 gneE22 -gneE9"/>
    </vehicle>
    <vehicle id="500" type="car" depart="300.00" departLane="best" departSpeed="max">
        <route edges="gneE25 gneE4 gneE5 gneE7 -gneE43"/>
    </vehicle>
    <vehicle id="504" type="car" depart="302.40" departLane="best" departSpeed="max">
        <route edges="gneE2 gneE22 gneE23 -gneE15"/>
    </vehicle>
    <vehicle id="510" type="car" depart="306.00" departLane="best" departSpeed="max">
        <route edges="gneE9 gneE23 gneE24"/>
    </vehicle>
    <vehicle id="515" type="car" depart="309.00" departLane="best" departSpeed="max">
        <route edges="gneE48"/>
    </vehicle>
    <vehicle id="516" type="car" depart="309.60" departLane="best" departSpeed="max">
        <route edges="gneE9 gneE10 -gneE26 gneE4 gneE5 gneE7 gneE8"/>
    </vehicle>
    <vehicle id="518" type="car" depart="310.80" departLane="best" departSpeed="max">
        <route edges="gneE15 gneE16 -gneE27 gneE11 gneE12 gneE13 gneE47"/>
    </vehicle>
    <vehicle id="520" type="car" depart="312.00" departLane="best" departSpeed="max">
        <route edges="-gneE47 -gneE13 -gneE12 -gneE11 gneE27 gneE28"/>
    </vehicle>
    <vehicle id="521" type="car" depart="312.60" departLane="best" departSpeed="max">
        <route edges="gneE43 -gneE7 -gneE5 gneE30 gneE31 gneE32"/>
    </vehicle>
    <vehicle id="523" type="car" depart="313.80" departLane="best" departSpeed="max">
        <route edges="-gneE38"/>
    </vehicle>
    <vehicle id="524" type="car" depart="314.40" departLane="best" departSpeed="max">
        <route edges="-gneE47 gneE45 gneE46"/>
    </vehicle>
    <vehicle id="525" type="car" depart="315.00" departLane="best" departSpeed="max">
        <route edges="-gneE8 -gneE7 -gneE5 -gneE4 gneE26 -gneE10 -gneE9"/>
    </vehicle>
    <vehicle id="530" type="car" depart="318.00" departLane="best" departSpeed="max">
        <route edges="-gneE41 -gneE40 -gneE39 gneE7 gneE8"/>
    </vehicle>
    <vehicle id="531" type="car" depart="318.60" departLane="best" departSpeed="max">
        <route edges="-gneE15"/>
    </vehicle>
    <vehicle id="534" type="car" depart="320.40" departLane="best" departSpeed="max">
        <route edges="-gneE48 -gneE45 -gneE44 gneE8"/>
    </vehicle>
    <vehicle id="535" type="car" depart="321.00" departLane="best" departSpeed="max">
        <route edges="-gneE15"/>
    </vehicle>
    <vehicle id="536" type="car" depart="321.60" departLane="best" departSpeed="max">
        <route edges="-gneE24 gneE16 -gneE27 -gneE10 gneE23 gneE24"/>
    </vehicle>
    <vehicle id="538" type="car" depart="322.80" departLane="best" departSpeed="max">
        <route edges="-gneE24 gneE16 gneE17 gneE18 gneE19 gneE48"/>
    </vehicle>
    <vehicle id="542" type="car" depart="325.20" departLane="best" departSpeed="max">
        <route edges="-gneE48 -gneE45 -gneE44 -gneE7 -gneE5 -gneE4 -gneE3 -gneE21"/>
    </vehicle>
    <vehicle id="550" type="car" depart="330.00" departLane="best" departSpeed="max">
        <route edges="-gneE32 -gneE31 -gneE11 -gneE10 -gneE9"/>
    </vehicle>
    <vehicle id="553" type="car" depart="331.80" departLane="best" departSpeed="max">
        <route edges="gneE9"/>
    </vehicle>
    <vehicle id="558" type="car" depart="334.80" departLane="best" departSpeed="max">
        <route edges="-gneE47 gneE45 gneE46"/>
    </vehicle>
    <vehicle id="562" type="car" depart="337.20" departLane="best" departSpeed="max">
        <route edges="gneE15 gneE16 -gneE27 -gneE10 gneE23 -gneE15"/>
    </vehicle>
    <vehicle id="570" type="car" depart="342.00" departLane="best" departSpeed="max">
        <route edges="-gneE8 -gneE7 -gneE5 -gneE4 -gneE3 -gneE21"/>
    </vehicle>
    <vehicle id="573" type="car" depart="343.80" departLane="best" departSpeed="max">
        <route edges="gneE15 gneE16 gneE17 gneE18 gneE41"/>
    </vehicle>
    <vehicle id="574" type="car" depart="344.40" departLane="best" departSpeed="max">
        <route edges="-gneE41 gneE19 gneE48"/>
    </vehicle>
    <vehicle id="575" type="car" depart="345.00" departLane="best" departSpeed="max">
        <route edges="gneE29 -gneE4 -gneE3 -gneE2"/>
    </vehicle>
    <vehicle id="579" type="car" depart="347.40" departLane="best" departSpeed="max">
        <route edges="gneE48"/>
    </vehicle>
    <vehicle id="586" type="car" depart="351.60" departLane="best" departSpeed="max">
        <route edges="-gneE8 -gneE7 -gneE5 -gneE4 -gneE25"/>
    </vehicle>
    <vehicle id="593" type="car" depart="355.80" departLane="best" departSpeed="max">
        <route edges="gneE9 gneE10 gneE11 gneE12 gneE13 gneE45 gneE48"/>
    </vehicle>
    <vehicle id="606" type="car" depart="363.60" departLane="best" departSpeed="max">
        <route edges="-gneE48 -gneE45 -gneE44 -gneE43"/>
    </vehicle>
    <vehicle id="610" type="car" depart="366.00" departLane="best" departSpeed="max">
        <route edges="gneE8"/>
    </vehicle>
    <vehicle id="611" type="car" depart="366.60" departLane="best" departSpeed="max">
        <route edges="gneE43 -gneE7 -gneE5 -gneE4 gneE26 -gneE10 -gneE9"/>
    </vehicle>
    <vehicle id="615" type="car" depart="369.00" departLane="best" departSpeed="max">
        <route edges="-gneE8 -gneE7 -gneE5 gneE30 gneE31 gneE32"/>
    </vehicle>