<?xml version="1.0" encoding="UTF-8"?>

<!-- generated on Tue 20 Nov 2018 12:06:43 ACDT by Netedit Version 0.32.0
<?xml version="1.0" encoding="UTF-8"?>

<configuration xmlns:xsi="http://www.w3.org/2001/XMLSchema-instance" xsi:noNamespaceSchemaLocation="http://sumo.dlr.de/xsd/netconvertConfiguration.xsd">

    <input>
        <sumo-net-file value="env1.net.xml"/>
    </input>

    <output>
        <output-file value="env1.net.xml"/>
    </output>

    <processing>
        <no-turnarounds value="true"/>
        <offset.disable-normalization value="true"/>
        <lefthand value="false"/>
        <junctions.corner-detail value="0"/>
        <rectangular-lane-cut value="false"/>
        <walkingareas value="false"/>
    </processing>

</configuration>
-->

<net version="0.27" xmlns:xsi="http://www.w3.org/2001/XMLSchema-instance" xsi:noNamespaceSchemaLocation="http://sumo.dlr.de/xsd/net_file.xsd">

    <location netOffset="0.00,0.00" convBoundary="-33.31,-188.91,347.78,143.13" origBoundary="-10000000000.00,-10000000000.00,10000000000.00,10000000000.00" projParameter="!"/>

    <edge id=":gneJ11_0" function="internal">
        <lane id=":gneJ11_0_0" index="0" speed="13.89" length="5.96" shape="232.60,65.16 232.30,63.32 231.65,62.01 230.65,61.23 229.30,61.00"/>
    </edge>
    <edge id=":gneJ11_1" function="internal">
        <lane id=":gneJ11_1_0" index="0" speed="13.89" length="19.05" shape="232.60,65.16 232.30,59.39 232.39,55.41 232.99,51.48 234.27,45.83"/>
        <lane id=":gneJ11_1_1" index="1" speed="13.89" length="19.05" shape="235.89,64.97 235.61,59.47 235.69,55.69 236.27,51.95 237.49,46.59"/>
    </edge>
    <edge id=":gneJ11_3" function="internal">
        <lane id=":gneJ11_3_0" index="0" speed="13.89" length="6.84" shape="235.89,64.97 236.30,60.26 237.34,58.43"/>
    </edge>
    <edge id=":gneJ11_16" function="internal">
        <lane id=":gneJ11_16_0" index="0" speed="13.89" length="10.18" shape="237.34,58.43 238.15,57.01 241.47,55.24 246.25,54.93"/>
    </edge>
    <edge id=":gneJ11_4" function="internal">
        <lane id=":gneJ11_4_0" index="0" speed="13.89" length="5.28" shape="245.74,61.51 244.24,61.60 243.20,62.14 242.61,63.13 242.48,64.57"/>
    </edge>
    <edge id=":gneJ11_5" function="internal">
        <lane id=":gneJ11_5_0" index="0" speed="13.89" length="16.62" shape="245.74,61.51 240.87,61.13 237.53,60.95 234.19,60.91 229.30,61.00"/>
        <lane id=":gneJ11_5_1" index="1" speed="13.89" length="16.62" shape="245.99,58.22 241.03,57.84 237.62,57.64 234.21,57.61 229.23,57.70"/>
    </edge>
    <edge id=":gneJ11_7" function="internal">
        <lane id=":gneJ11_7_0" index="0" speed="13.89" length="6.60" shape="245.99,58.22 241.32,57.17 239.89,56.07"/>
    </edge>
    <edge id=":gneJ11_17" function="internal">
        <lane id=":gneJ11_17_0" index="0" speed="13.89" length="10.48" shape="239.89,56.07 238.35,54.88 237.07,51.36 237.49,46.59"/>
    </edge>
    <edge id=":gneJ11_8" function="internal">
        <lane id=":gneJ11_8_0" index="0" speed="13.89" length="5.19" shape="243.91,48.10 243.78,49.55 244.17,50.62 245.08,51.32 246.50,51.64"/>
    </edge>
    <edge id=":gneJ11_9" function="internal">
        <lane id=":gneJ11_9_0" index="0" speed="13.89" length="17.12" shape="243.91,48.10 242.82,52.91 242.30,56.26 242.23,59.65 242.48,64.57"/>
        <lane id=":gneJ11_9_1" index="1" speed="13.89" length="17.12" shape="240.70,47.34 239.55,52.43 239.00,55.97 238.92,59.56 239.19,64.77"/>
    </edge>
    <edge id=":gneJ11_11" function="internal">
        <lane id=":gneJ11_11_0" index="0" speed="13.89" length="7.16" shape="240.70,47.34 239.09,51.80 237.61,53.73"/>
    </edge>
    <edge id=":gneJ11_18" function="internal">
        <lane id=":gneJ11_18_0" index="0" speed="13.89" length="9.63" shape="237.61,53.73 236.64,55.01 233.35,56.97 229.23,57.70"/>
    </edge>
    <edge id=":gneJ11_12" function="internal">
        <lane id=":gneJ11_12_0" index="0" speed="13.89" length="8.02" shape="229.08,51.10 230.89,50.74 232.37,49.74 233.49,48.10 234.27,45.83"/>
    </edge>
    <edge id=":gneJ11_13" function="internal">
        <lane id=":gneJ11_13_0" index="0" speed="13.89" length="17.28" shape="229.08,51.10 234.25,51.01 237.80,51.04 241.34,51.24 246.50,51.64"/>
        <lane id=":gneJ11_13_1" index="1" speed="13.89" length="17.28" shape="229.15,54.40 234.23,54.31 237.71,54.34 241.18,54.54 246.25,54.93"/>
    </edge>
    <edge id=":gneJ11_15" function="internal">
        <lane id=":gneJ11_15_0" index="0" speed="13.89" length="6.17" shape="229.15,54.40 233.30,54.97 234.98,56.02"/>
    </edge>
    <edge id=":gneJ11_19" function="internal">
        <lane id=":gneJ11_19_0" index="0" speed="13.89" length="10.14" shape="234.98,56.02 236.36,56.88 238.32,60.15 239.19,64.77"/>
    </edge>
    <edge id=":gneJ14_0" function="internal">
        <lane id=":gneJ14_0_0" index="0" speed="13.89" length="7.86" shape="38.65,-15.04 36.40,-14.37 34.76,-13.33 33.74,-11.92 33.34,-10.13"/>
    </edge>
    <edge id=":gneJ14_1" function="internal">
        <lane id=":gneJ14_1_0" index="0" speed="13.89" length="18.71" shape="38.65,-15.04 33.07,-14.03 29.20,-13.56 25.31,-13.55 19.65,-13.92"/>
        <lane id=":gneJ14_1_1" index="1" speed="13.89" length="18.71" shape="38.05,-18.28 32.71,-17.32 29.02,-16.87 25.30,-16.86 19.89,-17.21"/>
    </edge>
    <edge id=":gneJ14_3" function="internal">
        <lane id=":gneJ14_3_0" index="0" speed="13.89" length="6.85" shape="38.05,-18.28 33.26,-18.08 31.36,-18.87"/>
    </edge>
    <edge id=":gneJ14_16" function="internal">
        <lane id=":gneJ14_16_0" index="0" speed="13.89" length="10.23" shape="31.36,-18.87 29.80,-19.52 27.65,-22.60 26.82,-27.31"/>
    </edge>
    <edge id=":gneJ14_4" function="internal">
        <lane id=":gneJ14_4_0" index="0" speed="13.89" length="5.19" shape="33.42,-27.52 33.67,-26.08 34.32,-25.15 35.38,-24.71 36.83,-24.77"/>
    </edge>
    <edge id=":gneJ14_5" function="internal">
        <lane id=":gneJ14_5_0" index="0" speed="13.89" length="17.26" shape="33.42,-27.52 33.34,-10.13"/>
        <lane id=":gneJ14_5_1" index="1" speed="13.89" length="17.26" shape="30.12,-27.41 30.05,-10.28"/>
    </edge>
    <edge id=":gneJ14_7" function="internal">
        <lane id=":gneJ14_7_0" index="0" speed="13.89" length="7.23" shape="30.12,-27.41 29.60,-22.66 28.39,-20.53"/>
    </edge>
    <edge id=":gneJ14_17" function="internal">
        <lane id=":gneJ14_17_0" index="0" speed="13.89" length="9.66" shape="28.39,-20.53 27.73,-19.38 24.49,-17.56 19.89,-17.21"/>
    </edge>
    <edge id=":gneJ14_8" function="internal">
        <lane id=":gneJ14_8_0" index="0" speed="13.89" length="5.43" shape="20.37,-23.79 21.79,-23.92 22.79,-24.53 23.37,-25.63 23.52,-27.21"/>
    </edge>
    <edge id=":gneJ14_9" function="internal">
        <lane id=":gneJ14_9_0" index="0" speed="13.89" length="17.00" shape="20.37,-23.79 25.27,-23.48 28.64,-23.49 32.00,-23.89 36.83,-24.77"/>
        <lane id=":gneJ14_9_1" index="1" speed="13.89" length="17.00" shape="20.13,-20.50 25.28,-20.17 28.83,-20.18 32.35,-20.60 37.44,-21.53"/>
    </edge>
    <edge id=":gneJ14_11" function="internal">
        <lane id=":gneJ14_11_0" index="0" speed="13.89" length="6.66" shape="20.13,-20.50 24.63,-19.58 26.37,-18.47"/>
    </edge>
    <edge id=":gneJ14_18" function="internal">
        <lane id=":gneJ14_18_0" index="0" speed="13.89" length="9.47" shape="26.37,-18.47 27.78,-17.57 29.59,-14.47 30.05,-10.28"/>
    </edge>
    <edge id=":gneJ14_12" function="internal">
        <lane id=":gneJ14_12_0" index="0" speed="13.89" length="5.71" shape="23.45,-10.58 23.27,-11.93 22.57,-12.94 21.37,-13.60 19.65,-13.92"/>
    </edge>
    <edge id=":gneJ14_13" function="internal">
        <lane id=":gneJ14_13_0" index="0" speed="13.89" length="16.76" shape="23.45,-10.58 23.52,-27.21"/>
        <lane id=":gneJ14_13_1" index="1" speed="13.89" length="16.76" shape="26.75,-10.43 26.82,-27.31"/>
    </edge>
    <edge id=":gneJ14_15" function="internal">
        <lane id=":gneJ14_15_0" index="0" speed="13.89" length="5.89" shape="26.75,-10.43 27.57,-14.56 28.47,-15.97"/>
    </edge>
    <edge id=":gneJ14_19" function="internal">
        <lane id=":gneJ14_19_0" index="0" speed="13.89" length="10.92" shape="28.47,-15.97 29.63,-17.79 32.92,-20.11 37.44,-21.53"/>
    </edge>
    <edge id=":gneJ15_0" function="internal">
        <lane id=":gneJ15_0_0" index="0" speed="13.89" length="5.21" shape="78.12,-19.03 77.89,-20.48 77.25,-21.42 76.19,-21.86 74.73,-21.80"/>
    </edge>
    <edge id=":gneJ15_1" function="internal">
        <lane id=":gneJ15_1_0" index="0" speed="13.89" length="16.54" shape="78.12,-19.03 78.04,-23.89 77.93,-27.21 77.66,-30.53 77.12,-35.36"/>
        <lane id=":gneJ15_1_1" index="1" speed="13.89" length="16.54" shape="81.42,-19.08 81.34,-24.04 81.22,-27.43 80.95,-30.82 80.40,-35.74"/>
    </edge>
    <edge id=":gneJ15_3" function="internal">
        <lane id=":gneJ15_3_0" index="0" speed="13.89" length="6.88" shape="81.42,-19.08 81.98,-23.87 82.98,-25.67"/>
    </edge>
    <edge id=":gneJ15_16" function="internal">
        <lane id=":gneJ15_16_0" index="0" speed="13.89" length="9.97" shape="82.98,-25.67 83.85,-27.22 87.01,-29.13 91.48,-29.60"/>
    </edge>
    <edge id=":gneJ15_4" function="internal">
        <lane id=":gneJ15_4_0" index="0" speed="13.89" length="5.70" shape="91.16,-23.01 89.76,-22.83 88.77,-22.13 88.19,-20.92 88.02,-19.19"/>
    </edge>
    <edge id=":gneJ15_5" function="internal">
        <lane id=":gneJ15_5_0" index="0" speed="13.89" length="16.93" shape="91.16,-23.01 86.26,-23.20 82.90,-23.12 79.56,-22.69 74.73,-21.80"/>
        <lane id=":gneJ15_5_1" index="1" speed="13.89" length="16.93" shape="91.32,-26.30 86.19,-26.51 82.67,-26.43 79.17,-25.97 74.12,-25.04"/>
    </edge>
    <edge id=":gneJ15_7" function="internal">
        <lane id=":gneJ15_7_0" index="0" speed="13.89" length="6.74" shape="91.32,-26.30 86.93,-27.08 84.94,-28.19"/>
    </edge>
    <edge id=":gneJ15_17" function="internal">
        <lane id=":gneJ15_17_0" index="0" speed="13.89" length="9.19" shape="84.94,-28.19 83.65,-28.91 81.47,-31.80 80.40,-35.74"/>
    </edge>
    <edge id=":gneJ15_8" function="internal">
        <lane id=":gneJ15_8_0" index="0" speed="13.89" length="6.52" shape="86.95,-36.51 87.39,-35.01 88.32,-33.91 89.74,-33.20 91.65,-32.90"/>
    </edge>
    <edge id=":gneJ15_9" function="internal">
        <lane id=":gneJ15_9_0" index="0" speed="13.89" length="17.20" shape="86.95,-36.51 87.52,-31.39 87.81,-27.87 87.94,-24.34 88.02,-19.19"/>
        <lane id=":gneJ15_9_1" index="1" speed="13.89" length="17.20" shape="83.67,-36.13 84.23,-31.10 84.52,-27.65 84.64,-24.19 84.72,-19.14"/>
    </edge>
    <edge id=":gneJ15_11" function="internal">
        <lane id=":gneJ15_11_0" index="0" speed="13.89" length="6.03" shape="83.67,-36.13 83.48,-32.02 82.59,-30.31"/>
    </edge>
    <edge id=":gneJ15_18" function="internal">
        <lane id=":gneJ15_18_0" index="0" speed="13.89" length="10.38" shape="82.59,-30.31 81.82,-28.81 78.70,-26.48 74.12,-25.04"/>
    </edge>
    <edge id=":gneJ15_12" function="internal">
        <lane id=":gneJ15_12_0" index="0" speed="13.89" length="6.32" shape="72.91,-31.53 74.88,-32.09 76.24,-32.91 76.98,-34.00 77.12,-35.36"/>
    </edge>
    <edge id=":gneJ15_13" function="internal">
        <lane id=":gneJ15_13_0" index="0" speed="13.89" length="18.48" shape="72.91,-31.53 78.41,-32.54 82.22,-33.04 86.06,-33.12 91.65,-32.90"/>
        <lane id=":gneJ15_13_1" index="1" speed="13.89" length="18.48" shape="73.51,-28.29 78.79,-29.25 82.45,-29.73 86.13,-29.82 91.48,-29.60"/>
    </edge>
    <edge id=":gneJ15_15" function="internal">
        <lane id=":gneJ15_15_0" index="0" speed="13.89" length="6.84" shape="73.51,-28.29 78.35,-28.49 80.19,-27.72"/>
    </edge>
    <edge id=":gneJ15_19" function="internal">
        <lane id=":gneJ15_19_0" index="0" speed="13.89" length="10.38" shape="80.19,-27.72 81.83,-27.03 83.95,-23.91 84.72,-19.14"/>
    </edge>
    <edge id=":gneJ16_0" function="internal">
        <lane id=":gneJ16_0_0" index="0" speed="13.89" length="6.44" shape="153.37,-20.92 151.75,-20.56 150.55,-19.73 149.76,-18.43 149.39,-16.67"/>
    </edge>
    <edge id=":gneJ16_1" function="internal">
        <lane id=":gneJ16_1_0" index="0" speed="13.89" length="17.33" shape="153.37,-20.92 148.18,-20.59 144.63,-20.48 141.06,-20.56 135.87,-20.81"/>
        <lane id=":gneJ16_1_1" index="1" speed="13.89" length="17.33" shape="153.14,-24.21 148.07,-23.89 144.59,-23.78 141.11,-23.86 136.03,-24.11"/>
    </edge>
    <edge id=":gneJ16_3" function="internal">
        <lane id=":gneJ16_3_0" index="0" speed="13.89" length="6.22" shape="153.14,-24.21 148.92,-24.59 147.20,-25.56"/>
    </edge>
    <edge id=":gneJ16_16" function="internal">
        <lane id=":gneJ16_16_0" index="0" speed="13.89" length="10.15" shape="147.20,-25.56 145.77,-26.37 143.69,-29.56 142.68,-34.15"/>
    </edge>
    <edge id=":gneJ16_4" function="internal">
        <lane id=":gneJ16_4_0" index="0" speed="13.89" length="5.90" shape="149.25,-34.75 149.61,-32.94 150.30,-31.68 151.32,-30.96 152.69,-30.80"/>
    </edge>
    <edge id=":gneJ16_5" function="internal">
        <lane id=":gneJ16_5_0" index="0" speed="13.89" length="17.84" shape="149.25,-34.75 149.72,-29.39 149.90,-25.71 149.79,-22.03 149.39,-16.67"/>
        <lane id=":gneJ16_5_1" index="1" speed="13.89" length="17.84" shape="145.96,-34.45 146.42,-29.26 146.59,-25.70 146.49,-22.13 146.10,-16.94"/>
    </edge>
    <edge id=":gneJ16_7" function="internal">
        <lane id=":gneJ16_7_0" index="0" speed="13.89" length="6.74" shape="145.96,-34.45 145.71,-29.72 144.78,-27.95"/>
    </edge>
    <edge id=":gneJ16_17" function="internal">
        <lane id=":gneJ16_17_0" index="0" speed="13.89" length="10.19" shape="144.78,-27.95 143.97,-26.42 140.74,-24.55 136.03,-24.11"/>
    </edge>
    <edge id=":gneJ16_8" function="internal">
        <lane id=":gneJ16_8_0" index="0" speed="13.89" length="5.17" shape="136.36,-30.70 137.80,-30.83 138.78,-31.41 139.31,-32.41 139.39,-33.86"/>
    </edge>
    <edge id=":gneJ16_9" function="internal">
        <lane id=":gneJ16_9_0" index="0" speed="13.89" length="16.54" shape="136.36,-30.70 141.20,-30.46 144.52,-30.38 147.84,-30.49 152.69,-30.80"/>
        <lane id=":gneJ16_9_1" index="1" speed="13.89" length="16.54" shape="136.19,-27.40 141.16,-27.16 144.56,-27.08 147.96,-27.19 152.92,-27.51"/>
    </edge>
    <edge id=":gneJ16_11" function="internal">
        <lane id=":gneJ16_11_0" index="0" speed="13.89" length="6.81" shape="136.19,-27.40 140.83,-26.55 142.60,-25.43"/>
    </edge>
    <edge id=":gneJ16_18" function="internal">
        <lane id=":gneJ16_18_0" index="0" speed="13.89" length="9.73" shape="142.60,-25.43 144.03,-24.52 145.79,-21.32 146.10,-16.94"/>
    </edge>
    <edge id=":gneJ16_12" function="internal">
        <lane id=":gneJ16_12_0" index="0" speed="13.89" length="5.66" shape="139.52,-17.48 139.39,-18.86 138.74,-19.88 137.56,-20.53 135.87,-20.81"/>
    </edge>
    <edge id=":gneJ16_13" function="internal">
        <lane id=":gneJ16_13_0" index="0" speed="13.89" length="16.70" shape="139.52,-17.48 139.89,-22.33 139.98,-25.67 139.82,-29.01 139.39,-33.86"/>
        <lane id=":gneJ16_13_1" index="1" speed="13.89" length="16.70" shape="142.81,-17.21 143.19,-22.23 143.29,-25.68 143.12,-29.13 142.68,-34.15"/>
    </edge>
    <edge id=":gneJ16_15" function="internal">
        <lane id=":gneJ16_15_0" index="0" speed="13.89" length="6.57" shape="142.81,-17.21 143.74,-21.47 144.93,-23.34"/>
    </edge>
    <edge id=":gneJ16_19" function="internal">
        <lane id=":gneJ16_19_0" index="0" speed="13.89" length="9.38" shape="144.93,-23.34 145.73,-24.61 148.79,-26.62 152.92,-27.51"/>
    </edge>
    <edge id=":gneJ17_0" function="internal">
        <lane id=":gneJ17_0_0" index="0" speed="13.89" length="6.61" shape="214.27,-24.18 212.89,-23.96 211.81,-23.11 211.04,-21.62 210.56,-19.51"/>
    </edge>
    <edge id=":gneJ17_1" function="internal">
        <lane id=":gneJ17_1_0" index="0" speed="13.89" length="16.76" shape="214.27,-24.18 209.37,-24.46 206.01,-24.51 202.65,-24.35 197.75,-24.01"/>
        <lane id=":gneJ17_1_1" index="1" speed="13.89" length="16.76" shape="214.48,-27.47 209.45,-27.76 206.00,-27.81 202.55,-27.65 197.53,-27.30"/>
    </edge>
    <edge id=":gneJ17_3" function="internal">
        <lane id=":gneJ17_3_0" index="0" speed="13.89" length="6.21" shape="214.48,-27.47 210.45,-28.31 208.71,-29.47"/>
    </edge>
    <edge id=":gneJ17_16" function="internal">
        <lane id=":gneJ17_16_0" index="0" speed="13.89" length="8.93" shape="208.71,-29.47 207.58,-30.23 205.87,-33.22 205.32,-37.30"/>
    </edge>
    <edge id=":gneJ17_4" function="internal">
        <lane id=":gneJ17_4_0" index="0" speed="13.89" length="4.93" shape="211.92,-37.26 212.10,-35.93 212.66,-34.95 213.59,-34.33 214.90,-34.06"/>
    </edge>
    <edge id=":gneJ17_5" function="internal">
        <lane id=":gneJ17_5_0" index="0" speed="13.89" length="17.62" shape="211.92,-37.26 211.85,-31.97 211.66,-28.35 211.26,-24.75 210.56,-19.51"/>
        <lane id=":gneJ17_5_1" index="1" speed="13.89" length="17.62" shape="208.62,-37.28 208.55,-32.12 208.37,-28.58 207.98,-25.07 207.29,-19.94"/>
    </edge>
    <edge id=":gneJ17_7" function="internal">
        <lane id=":gneJ17_7_0" index="0" speed="13.89" length="6.05" shape="208.62,-37.28 207.90,-33.20 206.82,-31.64"/>
    </edge>
    <edge id=":gneJ17_17" function="internal">
        <lane id=":gneJ17_17_0" index="0" speed="13.89" length="10.66" shape="206.82,-31.64 205.82,-30.18 202.36,-28.21 197.53,-27.30"/>
    </edge>
    <edge id=":gneJ17_8" function="internal">
        <lane id=":gneJ17_8_0" index="0" speed="13.89" length="6.68" shape="197.07,-33.89 199.23,-34.23 200.77,-34.92 201.70,-35.95 202.02,-37.32"/>
    </edge>
    <edge id=":gneJ17_9" function="internal">
        <lane id=":gneJ17_9_0" index="0" speed="13.89" length="17.64" shape="197.07,-33.89 202.36,-34.25 205.98,-34.42 209.61,-34.36 214.90,-34.06"/>
        <lane id=":gneJ17_9_1" index="1" speed="13.89" length="17.64" shape="197.30,-30.59 202.45,-30.95 205.99,-31.11 209.53,-31.06 214.69,-30.76"/>
    </edge>
    <edge id=":gneJ17_11" function="internal">
        <lane id=":gneJ17_11_0" index="0" speed="13.89" length="6.80" shape="197.30,-30.59 202.24,-30.23 203.84,-29.31"/>
    </edge>
    <edge id=":gneJ17_18" function="internal">
        <lane id=":gneJ17_18_0" index="0" speed="13.89" length="10.76" shape="203.84,-29.31 205.56,-28.33 207.24,-24.90 207.29,-19.94"/>
    </edge>
    <edge id=":gneJ17_12" function="internal">
        <lane id=":gneJ17_12_0" index="0" speed="13.89" length="5.26" shape="200.75,-20.82 200.73,-22.31 200.23,-23.33 199.24,-23.90 197.75,-24.01"/>
    </edge>
    <edge id=":gneJ17_13" function="internal">
        <lane id=":gneJ17_13_0" index="0" speed="13.89" length="16.78" shape="200.75,-20.82 201.40,-25.70 201.78,-29.04 201.95,-32.41 202.02,-37.32"/>
        <lane id=":gneJ17_13_1" index="1" speed="13.89" length="16.78" shape="204.02,-20.38 204.69,-25.38 205.07,-28.81 205.25,-32.26 205.32,-37.30"/>
    </edge>
    <edge id=":gneJ17_15" function="internal">
        <lane id=":gneJ17_15_0" index="0" speed="13.89" length="7.41" shape="204.02,-20.38 205.24,-25.15 206.61,-27.22"/>
    </edge>
    <edge id=":gneJ17_19" function="internal">
        <lane id=":gneJ17_19_0" index="0" speed="13.89" length="9.29" shape="206.61,-27.22 207.42,-28.46 210.57,-30.34 214.69,-30.76"/>
    </edge>
    <edge id=":gneJ18_0" function="internal">
        <lane id=":gneJ18_0_0" index="0" speed="13.89" length="9.80" shape="266.11,-21.97 263.49,-21.50 261.45,-20.40 259.97,-18.67 259.05,-16.30"/>
    </edge>
    <edge id=":gneJ18_1" function="internal">
        <lane id=":gneJ18_1_0" index="0" speed="13.89" length="19.13" shape="266.11,-21.97 260.38,-21.69 256.45,-21.61 252.53,-21.74 246.81,-22.08"/>
        <lane id=":gneJ18_1_1" index="1" speed="13.89" length="19.13" shape="265.94,-25.27 260.32,-24.99 256.48,-24.91 252.63,-25.04 247.02,-25.38"/>
    </edge>
    <edge id=":gneJ18_3" function="internal">
        <lane id=":gneJ18_3_0" index="0" speed="13.89" length="6.82" shape="265.94,-25.27 261.01,-25.72 259.40,-26.68"/>
    </edge>
    <edge id=":gneJ18_16" function="internal">
        <lane id=":gneJ18_16_0" index="0" speed="13.89" length="10.72" shape="259.40,-26.68 257.73,-27.68 256.11,-31.13 256.14,-36.09"/>
    </edge>
    <edge id=":gneJ18_4" function="internal">
        <lane id=":gneJ18_4_0" index="0" speed="13.89" length="5.26" shape="262.67,-35.10 262.66,-33.62 263.14,-32.58 264.12,-31.99 265.60,-31.86"/>
    </edge>
    <edge id=":gneJ18_5" function="internal">
        <lane id=":gneJ18_5_0" index="0" speed="13.89" length="19.01" shape="262.67,-35.10 259.05,-16.30"/>
        <lane id=":gneJ18_5_1" index="1" speed="13.89" length="19.01" shape="259.40,-35.59 255.84,-17.05"/>
    </edge>
    <edge id=":gneJ18_7" function="internal">
        <lane id=":gneJ18_7_0" index="0" speed="13.89" length="7.65" shape="259.40,-35.59 258.01,-30.86 256.35,-28.71"/>
    </edge>
    <edge id=":gneJ18_17" function="internal">
        <lane id=":gneJ18_17_0" index="0" speed="13.89" length="10.33" shape="256.35,-28.71 255.48,-27.59 251.82,-25.76 247.02,-25.38"/>
    </edge>
    <edge id=":gneJ18_8" function="internal">
        <lane id=":gneJ18_8_0" index="0" speed="13.89" length="7.98" shape="247.44,-31.96 249.54,-32.14 251.15,-32.97 252.26,-34.45 252.88,-36.58"/>
    </edge>
    <edge id=":gneJ18_9" function="internal">
        <lane id=":gneJ18_9_0" index="0" speed="13.89" length="18.37" shape="247.44,-31.96 252.83,-31.64 256.52,-31.52 260.21,-31.60 265.60,-31.86"/>
        <lane id=":gneJ18_9_1" index="1" speed="13.89" length="18.37" shape="247.23,-28.67 252.73,-28.34 256.50,-28.22 260.27,-28.30 265.77,-28.56"/>
    </edge>
    <edge id=":gneJ18_11" function="internal">
        <lane id=":gneJ18_11_0" index="0" speed="13.89" length="6.60" shape="247.23,-28.67 251.96,-27.67 253.37,-26.61"/>
    </edge>
    <edge id=":gneJ18_18" function="internal">
        <lane id=":gneJ18_18_0" index="0" speed="13.89" length="10.61" shape="253.37,-26.61 254.97,-25.41 256.26,-21.87 255.84,-17.05"/>
    </edge>
    <edge id=":gneJ18_12" function="internal">
        <lane id=":gneJ18_12_0" index="0" speed="13.89" length="5.21" shape="249.42,-18.56 249.54,-20.02 249.15,-21.09 248.24,-21.78 246.81,-22.08"/>
    </edge>
    <edge id=":gneJ18_13" function="internal">
        <lane id=":gneJ18_13_0" index="0" speed="13.89" length="18.48" shape="249.42,-18.56 252.88,-36.58"/>
        <lane id=":gneJ18_13_1" index="1" speed="13.89" length="18.48" shape="252.63,-17.81 256.14,-36.09"/>
    </edge>
    <edge id=":gneJ18_15" function="internal">
        <lane id=":gneJ18_15_0" index="0" speed="13.89" length="6.57" shape="252.63,-17.81 254.35,-22.31 255.48,-23.65"/>
    </edge>
    <edge id=":gneJ18_19" function="internal">
        <lane id=":gneJ18_19_0" index="0" speed="13.89" length="11.81" shape="255.48,-23.65 257.11,-25.60 260.92,-27.68 265.77,-28.56"/>
    </edge>
    <edge id=":gneJ21_0" function="internal">
        <lane id=":gneJ21_0_0" index="0" speed="13.89" length="5.66" shape="20.91,-111.63 20.64,-113.07 19.92,-114.08 18.75,-114.68 17.13,-114.86"/>
    </edge>
    <edge id=":gneJ21_1" function="internal">
        <lane id=":gneJ21_1_0" index="0" speed="13.89" length="16.54" shape="20.91,-111.63 19.87,-128.03"/>
        <lane id=":gneJ21_1_1" index="1" speed="13.89" length="16.54" shape="24.21,-111.73 23.16,-128.34"/>
    </edge>
    <edge id=":gneJ21_3" function="internal">
        <lane id=":gneJ21_3_0" index="0" speed="13.89" length="6.07" shape="24.21,-111.73 24.70,-116.05 25.55,-117.55"/>
    </edge>
    <edge id=":gneJ21_16" function="internal">
        <lane id=":gneJ21_16_0" index="0" speed="13.89" length="9.75" shape="25.55,-117.55 26.45,-119.15 29.48,-121.04 33.77,-121.70"/>
    </edge>
    <edge id=":gneJ21_4" function="internal">
        <lane id=":gneJ21_4_0" index="0" speed="13.89" length="5.02" shape="33.85,-115.10 32.48,-114.89 31.52,-114.29 30.96,-113.31 30.81,-111.93"/>
    </edge>
    <edge id=":gneJ21_5" function="internal">
        <lane id=":gneJ21_5_0" index="0" speed="13.89" length="16.73" shape="33.85,-115.10 17.13,-114.86"/>
        <lane id=":gneJ21_5_1" index="1" speed="13.89" length="16.73" shape="33.81,-118.40 17.07,-118.16"/>
    </edge>
    <edge id=":gneJ21_7" function="internal">
        <lane id=":gneJ21_7_0" index="0" speed="13.89" length="6.41" shape="33.81,-118.40 29.51,-118.98 27.72,-120.01"/>
    </edge>
    <edge id=":gneJ21_17" function="internal">
        <lane id=":gneJ21_17_0" index="0" speed="13.89" length="9.92" shape="27.72,-120.01 26.30,-120.83 24.18,-123.95 23.16,-128.34"/>
    </edge>
    <edge id=":gneJ21_8" function="internal">
        <lane id=":gneJ21_8_0" index="0" speed="13.89" length="6.31" shape="29.73,-128.96 30.12,-127.21 30.92,-125.97 32.13,-125.23 33.74,-125.00"/>
    </edge>
    <edge id=":gneJ21_9" function="internal">
        <lane id=":gneJ21_9_0" index="0" speed="13.89" length="16.96" shape="29.73,-128.96 30.81,-111.93"/>
        <lane id=":gneJ21_9_1" index="1" speed="13.89" length="16.96" shape="26.44,-128.65 27.51,-111.83"/>
    </edge>
    <edge id=":gneJ21_11" function="internal">
        <lane id=":gneJ21_11_0" index="0" speed="13.89" length="6.89" shape="26.44,-128.65 26.22,-124.13 25.16,-122.02"/>
    </edge>
    <edge id=":gneJ21_18" function="internal">
        <lane id=":gneJ21_18_0" index="0" speed="13.89" length="9.45" shape="25.16,-122.02 24.59,-120.87 21.54,-118.88 17.07,-118.16"/>
    </edge>
    <edge id=":gneJ21_12" function="internal">
        <lane id=":gneJ21_12_0" index="0" speed="13.89" length="5.09" shape="16.95,-124.76 18.34,-124.98 19.30,-125.60 19.81,-126.62 19.87,-128.03"/>
    </edge>
    <edge id=":gneJ21_13" function="internal">
        <lane id=":gneJ21_13_0" index="0" speed="13.89" length="16.78" shape="16.95,-124.76 33.74,-125.00"/>
        <lane id=":gneJ21_13_1" index="1" speed="13.89" length="16.78" shape="17.01,-121.46 33.77,-121.70"/>
    </edge>
    <edge id=":gneJ21_15" function="internal">
        <lane id=":gneJ21_15_0" index="0" speed="13.89" length="6.74" shape="17.01,-121.46 21.49,-120.92 23.44,-119.85"/>
    </edge>
    <edge id=":gneJ21_19" function="internal">
        <lane id=":gneJ21_19_0" index="0" speed="13.89" length="9.45" shape="23.44,-119.85 24.73,-119.14 26.74,-116.11 27.51,-111.83"/>
    </edge>
    <edge id=":gneJ22_0" function="internal">
        <lane id=":gneJ22_0_0" index="0" speed="13.89" length="7.24" shape="68.30,-110.61 67.81,-112.73 66.92,-114.25 65.63,-115.14 63.92,-115.43"/>
    </edge>
    <edge id=":gneJ22_1" function="internal">
        <lane id=":gneJ22_1_0" index="0" speed="13.89" length="17.84" shape="68.30,-110.61 66.83,-128.51"/>
        <lane id=":gneJ22_1_1" index="1" speed="13.89" length="17.84" shape="71.58,-110.99 70.13,-128.65"/>
    </edge>
    <edge id=":gneJ22_3" function="internal">
        <lane id=":gneJ22_3_0" index="0" speed="13.89" length="7.12" shape="71.58,-110.99 71.71,-115.87 72.72,-117.87"/>
    </edge>
    <edge id=":gneJ22_16" function="internal">
        <lane id=":gneJ22_16_0" index="0" speed="13.89" length="10.21" shape="72.72,-117.87 73.42,-119.25 76.70,-121.14 81.56,-121.53"/>
    </edge>
    <edge id=":gneJ22_4" function="internal">
        <lane id=":gneJ22_4_0" index="0" speed="13.89" length="5.23" shape="81.15,-114.94 79.68,-114.82 78.69,-114.25 78.17,-113.23 78.13,-111.76"/>
    </edge>
    <edge id=":gneJ22_5" function="internal">
        <lane id=":gneJ22_5_0" index="0" speed="13.89" length="17.35" shape="81.15,-114.94 63.92,-115.43"/>
        <lane id=":gneJ22_5_1" index="1" speed="13.89" length="17.35" shape="81.36,-118.23 63.89,-118.73"/>
    </edge>
    <edge id=":gneJ22_7" function="internal">
        <lane id=":gneJ22_7_0" index="0" speed="13.89" length="6.76" shape="81.36,-118.23 76.60,-119.14 74.95,-120.11"/>
    </edge>
    <edge id=":gneJ22_17" function="internal">
        <lane id=":gneJ22_17_0" index="0" speed="13.89" length="10.32" shape="74.95,-120.11 73.14,-121.18 70.99,-124.35 70.13,-128.65"/>
    </edge>
    <edge id=":gneJ22_8" function="internal">
        <lane id=":gneJ22_8_0" index="0" speed="13.89" length="7.24" shape="76.72,-128.93 77.10,-127.25 78.07,-126.00 79.62,-125.19 81.77,-124.82"/>
    </edge>
    <edge id=":gneJ22_9" function="internal">
        <lane id=":gneJ22_9_0" index="0" speed="13.89" length="17.35" shape="76.72,-128.93 78.13,-111.76"/>
        <lane id=":gneJ22_9_1" index="1" speed="13.89" length="17.35" shape="73.43,-128.79 74.86,-111.38"/>
    </edge>
    <edge id=":gneJ22_11" function="internal">
        <lane id=":gneJ22_11_0" index="0" speed="13.89" length="6.02" shape="73.43,-128.79 72.99,-124.43 72.20,-123.00"/>
    </edge>
    <edge id=":gneJ22_18" function="internal">
        <lane id=":gneJ22_18_0" index="0" speed="13.89" length="9.91" shape="72.20,-123.00 71.25,-121.30 68.22,-119.40 63.89,-118.73"/>
    </edge>
    <edge id=":gneJ22_12" function="internal">
        <lane id=":gneJ22_12_0" index="0" speed="13.89" length="5.04" shape="63.82,-125.33 65.19,-125.54 66.15,-126.14 66.69,-127.13 66.83,-128.51"/>
    </edge>
    <edge id=":gneJ22_13" function="internal">
        <lane id=":gneJ22_13_0" index="0" speed="13.89" length="17.84" shape="63.82,-125.33 81.77,-124.82"/>
        <lane id=":gneJ22_13_1" index="1" speed="13.89" length="17.84" shape="63.85,-122.03 81.56,-121.53"/>
    </edge>
    <edge id=":gneJ22_15" function="internal">
        <lane id=":gneJ22_15_0" index="0" speed="13.89" length="6.81" shape="63.85,-122.03 68.19,-121.40 70.27,-120.15"/>
    </edge>
    <edge id=":gneJ22_19" function="internal">
        <lane id=":gneJ22_19_0" index="0" speed="13.89" length="10.26" shape="70.27,-120.15 71.48,-119.42 73.70,-116.08 74.86,-111.38"/>
    </edge>