<?xml version="1.0" encoding="UTF-8"?>

<!-- generated on 2018/7/4 13:34:23 by Netedit Version 0.31.0
<?xml version="1.0" encoding="UTF-8"?>

<configuration xmlns:xsi="http://www.w3.org/2001/XMLSchema-instance" xsi:noNamespaceSchemaLocation="http://sumo.dlr.de/xsd/netconvertConfiguration.xsd">

    <input>
        <sumo-net-file value="F:\workspace\RegionalTransportSim\osm.net.xml"/>
    </input>

    <output>
        <output-file value="F:\workspace\RegionalTransportSim\osm.net.xml"/>
        <output.street-names value="true"/>
    </output>

    <processing>
        <no-turnarounds value="true"/>
        <offset.disable-normalization value="true"/>
        <lefthand value="false"/>
        <junctions.corner-detail value="5"/>
        <rectangular-lane-cut value="false"/>
        <walkingareas value="false"/>
    </processing>

</configuration>
-->

<net version="0.27" junctionCornerDetail="5" xmlns:xsi="http://www.w3.org/2001/XMLSchema-instance" xsi:noNamespaceSchemaLocation="http://sumo.dlr.de/xsd/net_file.xsd">

    <location netOffset="-271196.67,-3446844.22" convBoundary="917.50,511.99,9111.42,21932.74" origBoundary="120.593509,31.133521,120.695671,31.405288" projParameter="+proj=utm +zone=51 +ellps=WGS84 +datum=WGS84 +units=m +no_defs"/>

    <type id="highway.bridleway" priority="1" numLanes="1" speed="2.78" allow="pedestrian" oneway="1" width="2.00"/>
    <type id="highway.bus_guideway" priority="1" numLanes="1" speed="8.33" allow="bus" oneway="1"/>
    <type id="highway.cycleway" priority="1" numLanes="1" speed="5.56" allow="bicycle" oneway="0" width="1.00"/>
    <type id="highway.footway" priority="1" numLanes="1" speed="2.78" allow="pedestrian" oneway="1" width="2.00"/>
    <type id="highway.ford" priority="1" numLanes="1" speed="2.78" allow="army" oneway="0"/>
    <type id="highway.living_street" priority="3" numLanes="1" speed="2.78" disallow="tram rail_urban rail rail_electric ship" oneway="0"/>
    <type id="highway.motorway" priority="13" numLanes="2" speed="44.44" allow="private emergency authority army vip passenger hov taxi bus coach delivery truck trailer motorcycle evehicle custom1 custom2" oneway="1"/>
    <type id="highway.motorway_link" priority="12" numLanes="1" speed="22.22" allow="private emergency authority army vip passenger hov taxi bus coach delivery truck trailer motorcycle evehicle custom1 custom2" oneway="1"/>
    <type id="highway.path" priority="1" numLanes="1" speed="2.78" allow="bicycle pedestrian" oneway="1" width="2.00"/>
    <type id="highway.pedestrian" priority="1" numLanes="1" speed="2.78" allow="pedestrian" oneway="1" width="2.00"/>
    <type id="highway.primary" priority="9" numLanes="2" speed="27.78" disallow="tram rail_urban rail rail_electric ship" oneway="0"/>
    <type id="highway.primary_link" priority="8" numLanes="1" speed="22.22" disallow="tram rail_urban rail rail_electric ship" oneway="0"/>
    <type id="highway.raceway" priority="14" numLanes="2" speed="83.33" allow="vip" oneway="0"/>
    <type id="highway.residential" priority="4" numLanes="1" speed="13.89" disallow="tram rail_urban rail rail_electric ship" oneway="0"/>
    <type id="highway.secondary" priority="7" numLanes="2" speed="27.78" disallow="tram rail_urban rail rail_electric ship" oneway="0"/>
    <type id="highway.secondary_link" priority="6" numLanes="1" speed="22.22" disallow="tram rail_urban rail rail_electric ship" oneway="0"/>
    <type id="highway.service" priority="2" numLanes="1" speed="5.56" allow="delivery bicycle pedestrian" oneway="0"/>
    <type id="highway.services" priority="1" numLanes="1" speed="8.33" disallow="tram rail_urban rail rail_electric ship" oneway="0"/>
    <type id="highway.stairs" priority="1" numLanes="1" speed="1.39" allow="pedestrian" oneway="1" width="2.00"/>
    <type id="highway.step" priority="1" numLanes="1" speed="1.39" allow="pedestrian" oneway="1" width="2.00"/>
    <type id="highway.steps" priority="1" numLanes="1" speed="1.39" allow="pedestrian" oneway="1" width="2.00"/>
    <type id="highway.tertiary" priority="6" numLanes="1" speed="22.22" disallow="tram rail_urban rail rail_electric ship" oneway="0"/>
    <type id="highway.tertiary_link" priority="5" numLanes="1" speed="22.22" disallow="tram rail_urban rail rail_electric ship" oneway="0"/>
    <type id="highway.track" priority="1" numLanes="1" speed="5.56" disallow="tram rail_urban rail rail_electric ship" oneway="0"/>
    <type id="highway.trunk" priority="11" numLanes="2" speed="27.78" disallow="tram rail_urban rail rail_electric bicycle pedestrian ship" oneway="0"/>
    <type id="highway.trunk_link" priority="10" numLanes="1" speed="22.22" disallow="tram rail_urban rail rail_electric bicycle pedestrian ship" oneway="0"/>
    <type id="highway.unclassified" priority="5" numLanes="1" speed="13.89" disallow="tram rail_urban rail rail_electric ship" oneway="0"/>
    <type id="highway.unsurfaced" priority="1" numLanes="1" speed="8.33" disallow="tram rail_urban rail rail_electric ship" oneway="0"/>
    <type id="railway.light_rail" priority="15" numLanes="1" speed="27.78" allow="rail_urban" oneway="1"/>
    <type id="railway.preserved" priority="15" numLanes="1" speed="27.78" allow="rail" oneway="1"/>
    <type id="railway.rail" priority="15" numLanes="1" speed="83.33" allow="rail rail_electric" oneway="1"/>
    <type id="railway.subway" priority="15" numLanes="1" speed="27.78" allow="rail_urban" oneway="1"/>
    <type id="railway.tram" priority="15" numLanes="1" speed="13.89" allow="tram" oneway="1"/>

    <edge id=":112_0" function="internal">
        <lane id=":112_0_0" index="0" disallow="tram rail_urban rail rail_electric ship" speed="27.78" length="6.26" shape="1485.88,19854.62 1484.11,19854.69 1482.75,19855.24 1481.81,19856.28 1481.28,19857.81"/>
    </edge>
    <edge id=":112_1" function="internal">
        <lane id=":112_1_0" index="0" disallow="tram rail_urban rail rail_electric ship" speed="27.78" length="13.60" shape="1485.88,19854.62 1472.25,19853.06"/>
        <lane id=":112_1_1" index="1" disallow="tram rail_urban rail rail_electric ship" speed="27.78" length="13.60" shape="1486.17,19851.33 1472.78,19849.80"/>
    </edge>
    <edge id=":112_3" function="internal">
        <lane id=":112_3_0" index="0" disallow="tram rail_urban rail rail_electric ship" speed="27.78" length="6.82" shape="1486.17,19851.33 1481.79,19850.31 1479.93,19848.91"/>
    </edge>
    <edge id=":112_15" function="internal">
        <lane id=":112_15_0" index="0" speed="27.78" length="9.41" shape="1479.93,19848.91 1478.89,19848.13 1477.46,19844.80 1477.50,19840.31"/>
    </edge>
    <edge id=":112_4" function="internal">
        <lane id=":112_4_0" index="0" disallow="tram rail_urban rail rail_electric ship" speed="27.78" length="5.08" shape="1484.03,19841.30 1484.01,19842.71 1484.46,19843.75 1485.37,19844.43 1486.74,19844.75"/>
    </edge>
    <edge id=":112_5" function="internal">
        <lane id=":112_5_0" index="0" disallow="tram rail_urban rail rail_electric ship" speed="27.78" length="16.69" shape="1484.03,19841.30 1481.28,19857.81"/>
        <lane id=":112_5_1" index="1" disallow="tram rail_urban rail rail_electric ship" speed="27.78" length="16.69" shape="1480.76,19840.81 1478.03,19857.22"/>
    </edge>
    <edge id=":112_7" function="internal">
        <lane id=":112_7_0" index="0" disallow="tram rail_urban rail rail_electric ship" speed="27.78" length="8.08" shape="1480.76,19840.81 1479.69,19845.13 1478.00,19848.07 1477.81,19848.20"/>
    </edge>
    <edge id=":112_16" function="internal">
        <lane id=":112_16_0" index="0" speed="27.78" length="5.47" shape="1477.81,19848.20 1475.70,19849.63 1472.78,19849.80"/>
    </edge>
    <edge id=":112_8" function="internal">
        <lane id=":112_8_0" index="0" disallow="tram rail_urban rail rail_electric ship" speed="27.78" length="5.39" shape="1473.84,19843.28 1475.24,19843.29 1476.32,19842.79 1477.07,19841.80 1477.50,19840.31"/>
    </edge>
    <edge id=":112_9" function="internal">
        <lane id=":112_9_0" index="0" disallow="tram rail_urban rail rail_electric ship" speed="27.78" length="13.11" shape="1473.84,19843.28 1486.74,19844.75"/>
        <lane id=":112_9_1" index="1" disallow="tram rail_urban rail rail_electric ship" speed="27.78" length="13.11" shape="1473.31,19846.54 1486.45,19848.04"/>
    </edge>
    <edge id=":112_11" function="internal">
        <lane id=":112_11_0" index="0" disallow="tram rail_urban rail rail_electric ship" speed="27.78" length="4.26" shape="1473.31,19846.54 1476.03,19847.60 1476.86,19848.66"/>
    </edge>
    <edge id=":112_17" function="internal">
        <lane id=":112_17_0" index="0" speed="27.78" length="8.95" shape="1476.86,19848.66 1477.72,19849.74 1478.39,19852.94 1478.03,19857.22"/>
    </edge>
    <edge id=":112_12" function="internal">
        <lane id=":112_12_0" index="0" disallow="tram rail_urban rail rail_electric ship" speed="27.78" length="5.02" shape="1474.78,19856.64 1474.83,19855.26 1474.43,19854.20 1473.57,19853.47 1472.25,19853.06"/>
    </edge>
    <edge id=":112_13" function="internal">
        <lane id=":112_13_0" index="0" disallow="tram rail_urban rail rail_electric ship" speed="27.78" length="16.55" shape="1474.78,19856.64 1477.50,19840.31"/>
    </edge>
    <edge id=":112_14" function="internal">
        <lane id=":112_14_0" index="0" disallow="tram rail_urban rail rail_electric ship" speed="27.78" length="6.27" shape="1474.78,19856.64 1476.15,19852.55 1477.43,19851.06"/>
    </edge>
    <edge id=":112_18" function="internal">
        <lane id=":112_18_0" index="0" speed="27.78" length="9.94" shape="1477.43,19851.06 1478.56,19849.76 1481.99,19848.25 1486.45,19848.04"/>
    </edge>
    <edge id=":122_0" function="internal">
        <lane id=":122_0_0" index="0" disallow="tram rail_urban rail rail_electric ship" speed="27.78" length="6.25" shape="1380.18,20524.64 1378.42,20524.66 1377.05,20525.18 1376.08,20526.19 1375.50,20527.71"/>
    </edge>
    <edge id=":122_1" function="internal">
        <lane id=":122_1_0" index="0" disallow="tram rail_urban rail rail_electric ship" speed="27.78" length="10.53" shape="1380.18,20524.64 1369.72,20523.43"/>
        <lane id=":122_1_1" index="1" disallow="tram rail_urban rail rail_electric ship" speed="27.78" length="10.53" shape="1380.56,20521.36 1370.10,20520.15"/>
    </edge>
    <edge id=":122_3" function="internal">
        <lane id=":122_3_0" index="0" disallow="tram rail_urban rail rail_electric ship" speed="27.78" length="4.61" shape="1380.56,20521.36 1377.70,20520.40 1376.66,20519.20"/>
    </edge>
    <edge id=":122_14" function="internal">
        <lane id=":122_14_0" index="0" speed="27.78" length="8.84" shape="1376.66,20519.20 1375.89,20518.31 1375.14,20515.09 1375.45,20510.74"/>
    </edge>
    <edge id=":122_4" function="internal">
        <lane id=":122_4_0" index="0" disallow="tram rail_urban rail rail_electric ship" speed="27.78" length="5.06" shape="1378.70,20511.30 1378.66,20512.69 1379.09,20513.74 1379.98,20514.45 1381.33,20514.81"/>
    </edge>
    <edge id=":122_5" function="internal">
        <lane id=":122_5_0" index="0" disallow="tram rail_urban rail rail_electric ship" speed="27.78" length="16.72" shape="1378.70,20511.30 1375.50,20527.71"/>
    </edge>
    <edge id=":122_6" function="internal">
        <lane id=":122_6_0" index="0" disallow="tram rail_urban rail rail_electric ship" speed="27.78" length="7.90" shape="1378.70,20511.30 1377.55,20515.47 1375.73,20518.34 1375.58,20518.43"/>
    </edge>
    <edge id=":122_15" function="internal">
        <lane id=":122_15_0" index="0" speed="27.78" length="5.91" shape="1375.58,20518.43 1373.24,20519.90 1370.10,20520.15"/>
    </edge>
    <edge id=":122_7" function="internal">
        <lane id=":122_7_0" index="0" disallow="tram rail_urban rail rail_electric ship" speed="27.78" length="6.09" shape="1370.85,20513.60 1372.65,20513.59 1374.01,20513.11 1374.95,20512.16 1375.45,20510.74"/>
    </edge>
    <edge id=":122_8" function="internal">
        <lane id=":122_8_0" index="0" disallow="tram rail_urban rail rail_electric ship" speed="27.78" length="10.55" shape="1370.85,20513.60 1381.33,20514.81"/>
        <lane id=":122_8_1" index="1" disallow="tram rail_urban rail rail_electric ship" speed="27.78" length="10.55" shape="1370.47,20516.87 1380.95,20518.08"/>
    </edge>
    <edge id=":122_10" function="internal">
        <lane id=":122_10_0" index="0" disallow="tram rail_urban rail rail_electric ship" speed="27.78" length="4.76" shape="1370.47,20516.87 1373.49,20517.86 1374.53,20519.05"/>
    </edge>
    <edge id=":122_16" function="internal">
        <lane id=":122_16_0" index="0" speed="27.78" length="9.05" shape="1374.53,20519.05 1375.34,20519.99 1376.01,20523.28 1375.50,20527.71"/>
    </edge>
    <edge id=":122_11" function="internal">
        <lane id=":122_11_0" index="0" disallow="tram rail_urban rail rail_electric ship" speed="27.78" length="5.13" shape="1372.27,20527.00 1372.38,20525.58 1371.99,20524.51 1371.10,20523.79 1369.72,20523.43"/>
    </edge>
    <edge id=":122_12" function="internal">
        <lane id=":122_12_0" index="0" disallow="tram rail_urban rail rail_electric ship" speed="27.78" length="16.57" shape="1372.27,20527.00 1375.45,20510.74"/>
    </edge>
    <edge id=":122_13" function="internal">
        <lane id=":122_13_0" index="0" disallow="tram rail_urban rail rail_electric ship" speed="27.78" length="7.54" shape="1372.27,20527.00 1373.61,20522.81 1375.33,20520.19"/>
    </edge>
    <edge id=":122_17" function="internal">
        <lane id=":122_17_0" index="0" speed="27.78" length="6.23" shape="1375.33,20520.19 1375.50,20519.93 1377.95,20518.35 1380.95,20518.08"/>
    </edge>
    <edge id=":128_0" function="internal">
        <lane id=":128_0_0" index="0" disallow="tram rail_urban rail rail_electric ship" speed="27.78" length="16.50" shape="1245.37,20885.26 1229.02,20882.62"/>
        <lane id=":128_0_1" index="1" disallow="tram rail_urban rail rail_electric ship" speed="27.78" length="16.50" shape="1245.84,20882.00 1229.61,20879.37"/>
    </edge>
    <edge id=":128_2" function="internal">
        <lane id=":128_2_0" index="0" disallow="tram rail_urban rail rail_electric ship" speed="27.78" length="6.73" shape="1245.84,20882.00 1241.48,20880.72 1239.81,20879.30"/>
    </edge>
    <edge id=":128_8" function="internal">
        <lane id=":128_8_0" index="0" speed="27.78" length="9.65" shape="1239.81,20879.30 1238.69,20878.35 1237.49,20874.91 1237.85,20870.38"/>
    </edge>
    <edge id=":128_3" function="internal">
        <lane id=":128_3_0" index="0" disallow="tram rail_urban rail rail_electric ship" speed="27.78" length="5.10" shape="1244.29,20871.85 1244.17,20873.26 1244.55,20874.33 1245.42,20875.06 1246.77,20875.46"/>
    </edge>
    <edge id=":128_4" function="internal">
        <lane id=":128_4_0" index="0" disallow="tram rail_urban rail rail_electric ship" speed="27.78" length="15.95" shape="1241.07,20871.11 1239.51,20875.35 1237.07,20878.14 1233.78,20879.48 1229.61,20879.37"/>
    </edge>
    <edge id=":128_5" function="internal">
        <lane id=":128_5_0" index="0" disallow="tram rail_urban rail rail_electric ship" speed="27.78" length="5.65" shape="1230.79,20872.88 1232.15,20872.88 1233.25,20872.34 1234.07,20871.26 1234.64,20869.65"/>
    </edge>
    <edge id=":128_6" function="internal">
        <lane id=":128_6_0" index="0" disallow="tram rail_urban rail rail_electric ship" speed="27.78" length="16.25" shape="1230.79,20872.88 1246.77,20875.46"/>
        <lane id=":128_6_1" index="1" disallow="tram rail_urban rail rail_electric ship" speed="27.78" length="16.25" shape="1230.20,20876.13 1246.31,20878.73"/>
    </edge>
    <edge id=":1282714303_0" function="internal">
        <lane id=":1282714303_0_0" index="0" disallow="tram rail_urban rail rail_electric ship" speed="25.00" length="5.22" shape="1540.44,20934.26 1539.01,20933.96 1537.90,20934.22 1537.11,20935.05 1536.65,20936.45"/>
    </edge>
    <edge id=":1282714303_1" function="internal">
        <lane id=":1282714303_1_0" index="0" disallow="tram rail_urban rail rail_electric ship" speed="27.78" length="10.06" shape="1540.44,20934.26 1537.71,20933.26 1535.82,20932.62 1533.90,20932.12 1531.05,20931.54"/>
        <lane id=":1282714303_1_1" index="1" disallow="tram rail_urban rail rail_electric ship" speed="27.78" length="10.06" shape="1541.58,20931.16 1538.70,20930.11 1536.71,20929.44 1534.68,20928.92 1531.68,20928.30"/>
    </edge>
    <edge id=":1282714303_3" function="internal">
        <lane id=":1282714303_3_0" index="0" disallow="tram rail_urban rail rail_electric ship" speed="27.78" length="2.41" shape="1541.58,20931.16 1540.70,20929.96 1540.59,20929.05"/>
    </edge>
    <edge id=":1282714303_11" function="internal">
        <lane id=":1282714303_11_0" index="0" speed="27.78" length="2.41" shape="1540.59,20929.05 1541.26,20928.41 1542.71,20928.06"/>
    </edge>
    <edge id=":1282714303_4" function="internal">
        <lane id=":1282714303_4_0" index="0" disallow="tram rail_urban rail rail_electric ship" speed="27.78" length="11.10" shape="1532.95,20921.82 1536.25,20922.50 1538.49,20923.07 1540.68,20923.81 1543.84,20924.96"/>
        <lane id=":1282714303_4_1" index="1" disallow="tram rail_urban rail rail_electric ship" speed="27.78" length="11.10" shape="1532.32,20925.06 1535.47,20925.71 1537.60,20926.26 1539.69,20926.96 1542.71,20928.06"/>
    </edge>
    <edge id=":1282714303_6" function="internal">
        <lane id=":1282714303_6_0" index="0" disallow="tram rail_urban rail rail_electric ship" speed="25.00" length="4.44" shape="1532.32,20925.06 1534.89,20926.22 1535.81,20927.55"/>
    </edge>
    <edge id=":1282714303_7" function="internal">
        <lane id=":1282714303_7_0" index="0" disallow="tram rail_urban rail rail_electric ship" speed="27.78" length="2.41" shape="1532.32,20925.06 1533.37,20926.11 1533.62,20927.00"/>
    </edge>
    <edge id=":1282714303_12" function="internal">
        <lane id=":1282714303_12_0" index="0" speed="25.00" length="9.17" shape="1535.81,20927.55 1536.47,20928.51 1537.06,20931.92 1536.65,20936.45"/>
    </edge>
    <edge id=":1282714303_13" function="internal">
        <lane id=":1282714303_13_0" index="0" speed="27.78" length="2.41" shape="1533.62,20927.00 1533.06,20927.73 1531.68,20928.30"/>
    </edge>
    <edge id=":1282714303_8" function="internal">
        <lane id=":1282714303_8_0" index="0" disallow="tram rail_urban rail rail_electric ship" speed="25.00" length="5.58" shape="1533.40,20935.87 1533.50,20934.20 1533.14,20932.92 1532.33,20932.03 1531.05,20931.54"/>
    </edge>
    <edge id=":1282714303_9" function="internal">
        <lane id=":1282714303_9_0" index="0" disallow="tram rail_urban rail rail_electric ship" speed="25.00" length="14.34" shape="1533.40,20935.87 1534.68,20931.44 1536.66,20928.66 1539.34,20927.53 1542.71,20928.06"/>
    </edge>
    <edge id=":1282714303_10" function="internal">
        <lane id=":1282714303_10_0" index="0" disallow="tram rail_urban rail rail_electric ship" speed="22.22" length="4.82" shape="1533.40,20935.87 1534.43,20934.80 1535.31,20934.54 1536.05,20935.09 1536.65,20936.45"/>
    </edge>
    <edge id=":1282714495_0" function="internal">
        <lane id=":1282714495_0_0" index="0" disallow="tram rail_urban rail rail_electric ship" speed="20.84" length="5.01" shape="1738.19,20997.22 1736.82,20997.11 1735.75,20997.47 1734.98,20998.29 1734.50,20999.58"/>
    </edge>
    <edge id=":1282714495_1" function="internal">
        <lane id=":1282714495_1_0" index="0" disallow="tram rail_urban rail rail_electric ship" speed="27.78" length="9.37" shape="1738.19,20997.22 1729.03,20994.97"/>
        <lane id=":1282714495_1_1" index="1" disallow="tram rail_urban rail rail_electric ship" speed="27.78" length="9.37" shape="1738.91,20994.00 1729.88,20991.79"/>
    </edge>
    <edge id=":1282714495_3" function="internal">
        <lane id=":1282714495_3_0" index="0" disallow="tram rail_urban rail rail_electric ship" speed="27.78" length="2.41" shape="1738.91,20994.00 1737.89,20992.92 1737.66,20992.03"/>
    </edge>
    <edge id=":1282714495_11" function="internal">
        <lane id=":1282714495_11_0" index="0" speed="27.78" length="2.41" shape="1737.66,20992.03 1738.25,20991.31 1739.63,20990.78"/>
    </edge>
    <edge id=":1282714495_4" function="internal">
        <lane id=":1282714495_4_0" index="0" disallow="tram rail_urban rail rail_electric ship" speed="27.78" length="9.10" shape="1731.58,20985.41 1740.36,20987.56"/>
        <lane id=":1282714495_4_1" index="1" disallow="tram rail_urban rail rail_electric ship" speed="27.78" length="9.10" shape="1730.73,20988.60 1739.63,20990.78"/>
    </edge>
    <edge id=":1282714495_6" function="internal">
        <lane id=":1282714495_6_0" index="0" disallow="tram rail_urban rail rail_electric ship" speed="20.84" length="4.23" shape="1730.73,20988.60 1733.15,20989.87 1733.95,20991.14"/>
    </edge>
    <edge id=":1282714495_7" function="internal">
        <lane id=":1282714495_7_0" index="0" disallow="tram rail_urban rail rail_electric ship" speed="27.78" length="2.41" shape="1730.73,20988.60 1731.71,20989.71 1731.90,20990.62"/>
    </edge>
    <edge id=":1282714495_12" function="internal">
        <lane id=":1282714495_12_0" index="0" speed="20.84" length="8.69" shape="1733.95,20991.14 1734.58,20992.12 1735.03,20995.36 1734.50,20999.58"/>
    </edge>
    <edge id=":1282714495_13" function="internal">
        <lane id=":1282714495_13_0" index="0" speed="27.78" length="2.41" shape="1731.90,20990.62 1731.29,20991.31 1729.88,20991.79"/>
    </edge>
    <edge id=":1282714495_8" function="internal">
        <lane id=":1282714495_8_0" index="0" disallow="tram rail_urban rail rail_electric ship" speed="20.84" length="5.08" shape="1731.27,20998.87 1731.39,20997.46 1731.05,20996.34 1730.26,20995.51 1729.03,20994.97"/>
    </edge>
    <edge id=":1282714495_9" function="internal">
        <lane id=":1282714495_9_0" index="0" disallow="tram rail_urban rail rail_electric ship" speed="20.84" length="13.13" shape="1731.27,20998.87 1732.57,20994.80 1734.40,20992.10 1736.75,20990.75 1739.63,20990.78"/>
    </edge>
    <edge id=":1282714495_10" function="internal">
        <lane id=":1282714495_10_0" index="0" disallow="tram rail_urban rail rail_electric ship" speed="13.89" length="4.82" shape="1731.27,20998.87 1732.34,20997.84 1733.23,20997.61 1733.95,20998.19 1734.50,20999.58"/>
    </edge>
    <edge id=":1282714539_0" function="internal">
        <lane id=":1282714539_0_0" index="0" disallow="tram rail_urban rail rail_electric ship" speed="25.00" length="5.15" shape="1215.45,20880.15 1214.01,20880.09 1212.96,20880.53 1212.29,20881.45 1212.00,20882.85"/>
    </edge>
    <edge id=":1282714539_1" function="internal">
        <lane id=":1282714539_1_0" index="0" disallow="tram rail_urban rail rail_electric ship" speed="27.78" length="9.36" shape="1215.45,20880.15 1206.18,20878.22"/>
        <lane id=":1282714539_1_1" index="1" disallow="tram rail_urban rail rail_electric ship" speed="27.78" length="9.36" shape="1216.04,20876.90 1206.97,20875.02"/>
    </edge>
    <edge id=":1282714539_3" function="internal">
        <lane id=":1282714539_3_0" index="0" disallow="tram rail_urban rail rail_electric ship" speed="27.78" length="8.95" shape="1208.56,20868.61 1217.22,20870.41"/>
        <lane id=":1282714539_3_1" index="1" disallow="tram rail_urban rail rail_electric ship" speed="27.78" length="8.95" shape="1207.76,20871.81 1216.63,20873.65"/>
    </edge>
    <edge id=":1282714539_5" function="internal">
        <lane id=":1282714539_5_0" index="0" disallow="tram rail_urban rail rail_electric ship" speed="25.00" length="3.76" shape="1207.76,20871.81 1209.84,20872.95 1210.58,20874.13"/>
    </edge>
    <edge id=":1282714539_8" function="internal">
        <lane id=":1282714539_8_0" index="0" speed="25.00" length="8.99" shape="1210.58,20874.13 1211.24,20875.17 1211.95,20878.47 1212.00,20882.85"/>
    </edge>
    <edge id=":1282714539_6" function="internal">
        <lane id=":1282714539_6_0" index="0" disallow="tram rail_urban rail rail_electric ship" speed="25.00" length="5.59" shape="1208.70,20882.65 1208.63,20880.97 1208.19,20879.67 1207.37,20878.75 1206.18,20878.22"/>
    </edge>
    <edge id=":1282714539_7" function="internal">
        <lane id=":1282714539_7_0" index="0" disallow="tram rail_urban rail rail_electric ship" speed="25.00" length="13.94" shape="1208.70,20882.65 1209.43,20878.22 1211.00,20875.24 1213.39,20873.72 1216.63,20873.65"/>
    </edge>
    <edge id=":1423186282_0" function="internal">
        <lane id=":1423186282_0_0" index="0" disallow="tram rail_urban rail rail_electric ship" speed="27.78" length="4.82" shape="2852.21,19943.71 2853.29,19942.69 2854.19,19942.47 2854.90,19943.06 2855.43,19944.45"/>
    </edge>
    <edge id=":1446611176_0" function="internal">
        <lane id=":1446611176_0_0" index="0" disallow="tram rail_urban rail rail_electric ship" speed="22.22" length="4.82" shape="3189.12,20332.28 3190.27,20333.22 3190.60,20334.08 3190.11,20334.86 3188.80,20335.56"/>
    </edge>
    <edge id=":1446611204_0" function="internal">
        <lane id=":1446611204_0_0" index="0" disallow="tram rail_urban rail rail_electric ship" speed="20.84" length="5.16" shape="2928.01,20740.95 2926.66,20740.91 2925.59,20741.34 2924.80,20742.23 2924.28,20743.60"/>
    </edge>
    <edge id=":1446611204_1" function="internal">
        <lane id=":1446611204_1_0" index="0" disallow="tram rail_urban rail rail_electric ship" speed="27.78" length="9.44" shape="2928.01,20740.95 2918.71,20739.14"/>
        <lane id=":1446611204_1_1" index="1" disallow="tram rail_urban rail rail_electric ship" speed="27.78" length="9.44" shape="2928.61,20737.70 2919.37,20735.91"/>
    </edge>
    <edge id=":1446611204_3" function="internal">
        <lane id=":1446611204_3_0" index="0" disallow="tram rail_urban rail rail_electric ship" speed="27.78" length="2.41" shape="2928.61,20737.70 2927.54,20736.66 2927.28,20735.78"/>
    </edge>
    <edge id=":1446611204_11" function="internal">
        <lane id=":1446611204_11_0" index="0" speed="27.78" length="2.41" shape="2927.28,20735.78 2927.84,20735.04 2929.20,20734.45"/>
    </edge>
    <edge id=":1446611204_4" function="internal">
        <lane id=":1446611204_4_0" index="0" disallow="tram rail_urban rail rail_electric ship" speed="27.78" length="9.32" shape="2920.68,20729.44 2929.80,20731.21"/>
        <lane id=":1446611204_4_1" index="1" disallow="tram rail_urban rail rail_electric ship" speed="27.78" length="9.32" shape="2920.02,20732.68 2929.20,20734.45"/>
    </edge>
    <edge id=":1446611204_6" function="internal">
        <lane id=":1446611204_6_0" index="0" disallow="tram rail_urban rail rail_electric ship" speed="20.84" length="4.52" shape="2920.02,20732.68 2922.74,20733.86 2923.66,20735.11"/>
    </edge>
    <edge id=":1446611204_7" function="internal">
        <lane id=":1446611204_7_0" index="0" disallow="tram rail_urban rail rail_electric ship" speed="27.78" length="2.41" shape="2920.02,20732.68 2921.07,20733.73 2921.31,20734.62"/>
    </edge>
    <edge id=":1446611204_12" function="internal">
        <lane id=":1446611204_12_0" index="0" speed="20.84" length="8.80" shape="2923.66,20735.11 2924.36,20736.07 2924.87,20739.32 2924.28,20743.60"/>
    </edge>
    <edge id=":1446611204_13" function="internal">
        <lane id=":1446611204_13_0" index="0" speed="27.78" length="2.41" shape="2921.31,20734.62 2920.74,20735.35 2919.37,20735.91"/>
    </edge>
    <edge id=":1446611204_8" function="internal">
        <lane id=":1446611204_8_0" index="0" disallow="tram rail_urban rail rail_electric ship" speed="20.84" length="5.04" shape="2921.07,20742.84 2921.20,20741.46 2920.85,20740.38 2920.02,20739.61 2918.71,20739.14"/>
    </edge>
    <edge id=":1446611204_9" function="internal">
        <lane id=":1446611204_9_0" index="0" disallow="tram rail_urban rail rail_electric ship" speed="20.84" length="12.98" shape="2921.07,20742.84 2922.42,20738.77 2924.23,20736.01 2926.49,20734.57 2929.20,20734.45"/>
    </edge>
    <edge id=":1446611204_10" function="internal">
        <lane id=":1446611204_10_0" index="0" disallow="tram rail_urban rail rail_electric ship" speed="13.89" length="4.82" shape="2921.07,20742.84 2922.16,20741.82 2923.06,20741.61 2923.77,20742.21 2924.28,20743.60"/>
    </edge>
    <edge id=":1446611210_0" function="internal">
        <lane id=":1446611210_0_0" index="0" disallow="tram rail_urban rail rail_electric ship" speed="13.89" length="9.34" shape="2881.40,20924.52 2879.41,20933.65"/>
    </edge>
    <edge id=":1446611210_1" function="internal">
        <lane id=":1446611210_1_0" index="0" disallow="tram rail_urban rail rail_electric ship" speed="18.06" length="10.25" shape="2881.40,20924.52 2880.40,20927.05 2878.77,20928.70 2876.54,20929.48 2873.70,20929.38"/>
    </edge>
    <edge id=":1446611210_2" function="internal">
        <lane id=":1446611210_2_0" index="0" disallow="tram rail_urban rail rail_electric ship" speed="13.89" length="4.82" shape="2881.40,20924.52 2880.32,20925.54 2879.42,20925.75 2878.71,20925.16 2878.19,20923.76"/>
    </edge>
    <edge id=":1446611210_3" function="internal">
        <lane id=":1446611210_3_0" index="0" disallow="tram rail_urban rail rail_electric ship" speed="18.06" length="5.17" shape="2874.25,20926.13 2875.72,20926.19 2876.86,20925.81 2877.69,20925.00 2878.19,20923.76"/>
    </edge>
    <edge id=":1446611210_4" function="internal">