<?xml version="1.0" encoding="UTF-8"?>

<!-- generated on Thu Dec 27 00:38:52 2018 by SUMO polyconvert Version 0.32.0
<?xml version="1.0" encoding="UTF-8"?>

<configuration xmlns:xsi="http://www.w3.org/2001/XMLSchema-instance" xsi:noNamespaceSchemaLocation="http://sumo.dlr.de/xsd/polyconvertConfiguration.xsd">

    <input>
        <net-file value="Manhattan.net.xml"/>
        <osm-files value="Manhattan.osm"/>
        <type-file value="typemap.xml"/>
    </input>

    <output>
        <output-file value="Manhattan.poly.xml"/>
    </output>

    <processing>
        <poi-layer-offset value="5"/>
    </processing>

</configuration>
-->

<additional xmlns:xsi="http://www.w3.org/2001/XMLSchema-instance" xsi:noNamespaceSchemaLocation="http://sumo.dlr.de/xsd/additional_file.xsd">
    <location netOffset="-584325.77,-4508126.03" convBoundary="0.00,-0.00,2822.68,8199.33" origBoundary="-74.001559,40.719743,-73.962986,40.793354" projParameter="+proj=utm +zone=18 +ellps=WGS84 +datum=WGS84 +units=m +no_defs"/>

    <poly id="134658131" type="building" color="255,230,230" fill="1" layer="-1.00" shape="1546.42,5109.02 1545.67,5107.56 1538.98,5095.29 1534.48,5087.01 1534.24,5086.57 1530.02,5078.79 1525.76,5070.91 1522.50,5064.89 1519.25,5058.89 1517.53,5055.70 1564.15,5031.06 1568.15,5048.19 1574.27,5076.13 1577.54,5092.41 1546.42,5109.02"/>
    <poly id="157328309" type="building" color="255,230,230" fill="1" layer="-1.00" shape="1711.12,5075.66 1712.59,5078.39 1718.99,5090.30 1712.46,5093.79 1706.07,5081.91 1695.01,5087.81 1705.95,5108.15 1706.28,5108.75 1707.20,5110.47 1708.94,5113.70 1739.92,5097.15 1725.93,5071.14 1725.28,5071.49 1723.87,5068.85 1722.93,5069.35 1719.20,5071.35 1711.12,5075.66"/>
    <poly id="164073289" type="building" color="255,230,230" fill="1" layer="-1.00" shape="1568.63,4911.65 1544.20,4866.04 1585.37,4844.15 1590.51,4853.36 1591.10,4854.42 1577.07,4861.79 1594.11,4893.59 1595.94,4897.13 1568.63,4911.65"/>
    <poly id="259882502" type="building" color="255,230,230" fill="1" layer="-1.00" shape="1719.20,5071.35 1722.93,5069.35 1711.96,5048.96 1658.18,5077.68 1659.62,5080.37 1668.99,5097.78 1673.11,5095.57 1686.02,5119.56 1706.28,5108.75 1705.95,5108.15 1695.01,5087.81 1691.95,5082.12 1696.87,5079.49 1698.45,5082.42 1711.12,5075.66 1719.20,5071.35"/>
    <poly id="259888102" type="building" color="255,230,230" fill="1" layer="-1.00" shape="1527.39,4994.83 1524.84,4990.08 1522.01,4984.78 1518.55,4978.34 1518.25,4977.80 1515.51,4972.60 1513.70,4969.20 1542.15,4953.65 1548.11,4978.77 1550.77,4978.24 1551.65,4981.67 1546.89,4984.21 1545.39,4985.07 1534.10,4991.21 1532.46,4992.11 1527.39,4994.83"/>
    <poly id="259888103" type="building" color="255,230,230" fill="1" layer="-1.00" shape="1514.99,5036.88 1514.45,5035.43 1500.61,5008.92 1489.46,5014.74 1480.16,4997.05 1476.32,4989.78 1475.88,4989.13 1421.75,5018.16 1449.95,5071.20 1514.99,5036.88"/>
    <poly id="259919480" type="building" color="255,230,230" fill="1" layer="-1.00" shape="1585.27,5162.18 1587.47,5178.63 1579.10,5183.01 1568.36,5188.65 1541.32,5202.83 1530.56,5208.47 1522.31,5212.80 1507.50,5185.02 1514.48,5181.46 1518.25,5179.54 1518.94,5179.19 1519.55,5178.88 1521.41,5177.90 1522.80,5177.16 1526.17,5175.37 1532.85,5187.18 1545.68,5180.30 1539.78,5168.90 1559.71,5157.74 1567.17,5171.94 1571.59,5169.54 1572.08,5169.28 1572.73,5168.94 1577.38,5166.43 1585.27,5162.18"/>
    <poly id="259919482" type="building" color="255,230,230" fill="1" layer="-1.00" shape="1519.55,5178.88 1508.68,5158.55 1505.70,5152.75 1574.77,5115.34 1580.75,5119.71 1585.27,5162.18 1577.38,5166.43 1572.73,5168.94 1572.08,5169.28 1571.59,5169.54 1567.17,5171.94 1559.71,5157.74 1558.42,5155.66 1555.14,5149.59 1549.46,5152.60 1530.02,5162.92 1534.35,5171.02 1526.17,5175.37 1522.80,5177.16 1521.41,5177.90 1519.55,5178.88"/>
    <poly id="260283692" type="building" color="255,230,230" fill="1" layer="-1.00" shape="1875.24,5091.57 1860.82,5064.98 1859.72,5065.47 1825.83,5083.69 1814.64,5089.70 1810.31,5091.84 1824.87,5118.97 1839.41,5146.29 1861.91,5133.83 1863.02,5133.48 1857.51,5122.91 1848.59,5105.68 1875.24,5091.57"/>
    <poly id="261509934" type="landuse" color="194,194,130" fill="1" layer="-3.00" shape="1662.19,5241.52 1714.67,5213.22 1685.80,5159.69 1645.67,5181.33 1652.68,5194.32 1640.37,5200.96 1647.79,5214.82 1662.19,5241.52"/>
    <poly id="265147542" type="building" color="255,230,230" fill="1" layer="-1.00" shape="1727.84,5285.30 1725.27,5286.68 1721.67,5279.97 1724.24,5278.59 1723.73,5277.65 1719.84,5270.40 1706.23,5277.71 1710.62,5285.90 1712.88,5284.68 1716.48,5291.40 1714.23,5292.60 1718.89,5301.28 1732.50,5293.97 1730.11,5289.58 1727.84,5285.30"/>
    <poly id="265147543" type="building" color="255,230,230" fill="1" layer="-1.00" shape="1640.37,5200.96 1623.02,5210.32 1624.85,5227.18 1647.79,5214.82 1640.37,5200.96"/>
    <poly id="265147544" type="building" color="255,230,230" fill="1" layer="-1.00" shape="1734.94,5202.28 1754.69,5191.62 1751.11,5184.97 1749.55,5182.09 1748.77,5180.65 1745.47,5174.53 1744.06,5171.90 1742.78,5169.52 1740.35,5165.03 1720.59,5175.69 1723.05,5180.24 1724.33,5182.62 1725.65,5185.07 1728.57,5190.46 1731.36,5195.64 1734.94,5202.28"/>
    <poly id="265147545" type="building" color="255,230,230" fill="1" layer="-1.00" shape="1750.18,5279.01 1776.92,5264.66 1769.11,5250.12 1759.37,5255.34 1752.08,5259.25 1742.38,5264.48 1750.18,5279.01"/>
    <poly id="265147546" type="building" color="255,230,230" fill="1" layer="-1.00" shape="1743.80,5218.61 1736.90,5222.39 1750.27,5247.29 1751.18,5248.99 1758.12,5245.26 1748.68,5227.68 1743.80,5218.61"/>
    <poly id="265147547" type="building" color="255,230,230" fill="1" layer="-1.00" shape="1736.90,5222.39 1730.34,5225.91 1743.72,5250.81 1750.27,5247.29 1736.90,5222.39"/>
    <poly id="265147548" type="amenity" color="237,199,199" fill="1" layer="-1.00" shape="1730.34,5225.91 1723.60,5229.53 1737.85,5256.04 1744.58,5252.42 1743.72,5250.81 1730.34,5225.91"/>
    <poly id="265147548#1" type="building" color="255,230,230" fill="1" layer="-1.00" shape="1730.34,5225.91 1723.60,5229.53 1737.85,5256.04 1744.58,5252.42 1743.72,5250.81 1730.34,5225.91"/>
    <poly id="265147554" type="building" color="255,230,230" fill="1" layer="-1.00" shape="1712.24,5288.92 1707.84,5291.27 1706.84,5289.41 1708.43,5288.56 1704.55,5281.33 1690.17,5289.06 1695.04,5298.14 1692.11,5299.72 1698.76,5312.10 1718.89,5301.28 1714.23,5292.60 1712.24,5288.92"/>
    <poly id="265147557" type="building" color="255,230,230" fill="1" layer="-1.00" shape="1767.21,5150.11 1757.61,5155.28 1759.06,5157.97 1747.06,5164.44 1751.72,5173.09 1760.24,5168.49 1760.73,5169.42 1759.99,5169.82 1762.38,5174.27 1752.12,5179.80 1757.64,5190.03 1781.74,5177.04 1781.57,5176.73 1767.21,5150.11"/>
    <poly id="265147559" type="building" color="255,230,230" fill="1" layer="-1.00" shape="1720.98,5155.50 1727.70,5167.97 1743.66,5159.36 1738.51,5149.81 1738.59,5148.67 1737.50,5146.66 1736.35,5145.80 1735.88,5144.94 1740.08,5142.68 1740.55,5143.54 1740.73,5144.91 1741.83,5146.93 1742.75,5147.63 1748.23,5157.80 1766.22,5148.10 1768.52,5146.86 1754.69,5121.23 1751.71,5121.19 1704.82,5146.47 1706.06,5148.76 1717.48,5169.93 1720.60,5168.24 1717.55,5162.60 1718.44,5162.12 1716.24,5158.06 1720.98,5155.50"/>
    <poly id="265147562" type="building" color="255,230,230" fill="1" layer="-1.00" shape="1758.12,5245.26 1784.85,5230.90 1786.82,5236.54 1780.05,5241.67 1782.68,5246.55 1776.54,5249.84 1779.25,5254.89 1776.72,5256.25 1782.55,5267.10 1788.59,5263.85 1804.88,5251.22 1805.56,5250.64 1806.80,5249.36 1807.86,5247.91 1808.70,5246.33 1809.32,5244.65 1809.54,5243.77 1809.79,5242.01 1809.79,5240.21 1809.70,5239.32 1809.33,5237.58 1809.06,5236.72 1806.21,5227.84 1800.65,5213.48 1790.44,5193.62 1776.15,5201.31 1762.67,5208.55 1743.80,5218.61 1748.68,5227.68 1758.12,5245.26"/>
    <poly id="265147563" type="building" color="255,230,230" fill="1" layer="-1.00" shape="1645.67,5181.33 1623.03,5193.54 1621.31,5194.47 1623.02,5210.32 1640.37,5200.96 1652.68,5194.32 1645.67,5181.33"/>
    <poly id="265147564" type="building" color="255,230,230" fill="1" layer="-1.00" shape="1675.84,5309.39 1681.06,5319.12 1682.10,5321.04 1687.79,5317.99 1688.72,5317.49 1694.42,5314.43 1693.37,5312.51 1688.77,5303.91 1687.30,5304.70 1684.31,5299.13 1680.02,5291.15 1677.06,5292.75 1676.32,5293.14 1675.50,5293.57 1674.47,5294.14 1667.17,5298.05 1663.83,5299.85 1660.93,5294.48 1659.21,5291.25 1658.21,5291.75 1657.47,5290.39 1657.45,5289.01 1657.35,5288.32 1656.94,5287.00 1656.64,5286.37 1656.28,5285.78 1655.41,5284.71 1654.90,5284.25 1653.75,5283.46 1663.08,5278.45 1661.89,5276.24 1665.47,5274.31 1661.77,5267.41 1659.84,5268.45 1657.89,5264.83 1631.05,5279.24 1633.09,5283.03 1631.28,5284.01 1632.51,5286.30 1631.94,5286.61 1634.86,5292.06 1636.76,5291.05 1637.40,5292.26 1634.48,5293.81 1633.93,5294.38 1633.89,5295.07 1634.19,5295.95 1636.06,5299.42 1634.75,5300.13 1634.18,5300.79 1634.29,5301.51 1636.34,5305.33 1635.23,5305.92 1634.66,5306.42 1634.73,5307.37 1636.80,5311.22 1635.65,5311.84 1635.13,5312.30 1635.05,5313.30 1637.10,5317.12 1635.23,5318.13 1636.99,5321.37 1638.54,5324.31 1637.63,5324.75 1642.72,5334.25 1643.60,5333.75 1645.10,5336.53 1647.73,5339.50 1652.10,5337.16 1653.03,5336.66 1658.79,5333.56 1665.13,5330.16 1659.74,5320.21 1662.97,5318.45 1669.61,5314.90 1672.85,5313.18 1671.93,5311.49 1673.87,5310.44 1675.84,5309.39"/>
    <poly id="265147565" type="building" color="255,230,230" fill="1" layer="-1.00" shape="1647.79,5214.82 1624.85,5227.18 1628.22,5258.18 1628.68,5259.00 1629.43,5259.47 1630.88,5259.21 1662.52,5242.14 1662.19,5241.52 1647.79,5214.82"/>
    <poly id="265147566" type="building" color="255,230,230" fill="1" layer="-1.00" shape="1706.06,5148.76 1685.80,5159.69 1714.67,5213.22 1734.94,5202.28 1731.36,5195.64 1728.57,5190.46 1725.65,5185.07 1724.33,5182.62 1723.05,5180.24 1720.59,5175.69 1717.48,5169.93 1706.06,5148.76"/>
    <poly id="265147720" type="building" color="255,230,230" fill="1" layer="-1.00" shape="1933.54,5116.43 1900.40,5134.35 1907.30,5147.13 1909.73,5151.60 1942.87,5133.69 1933.54,5116.43"/>
    <poly id="265147721" type="building" color="255,230,230" fill="1" layer="-1.00" shape="1929.26,5187.67 1936.90,5183.49 1949.81,5176.52 1957.72,5172.38 1956.15,5169.51 1954.58,5166.63 1953.27,5164.22 1952.05,5162.00 1951.79,5161.52 1944.36,5147.88 1939.74,5139.40 1911.34,5154.54 1915.95,5163.08 1921.04,5172.43 1923.38,5176.72 1923.64,5177.20 1924.85,5179.42 1926.16,5181.83 1927.73,5184.71 1929.26,5187.67"/>
    <poly id="265147734" type="building" color="255,230,230" fill="1" layer="-1.00" shape="1843.86,5164.91 1817.64,5179.09 1825.13,5192.93 1839.29,5219.13 1846.47,5232.41 1872.69,5218.24 1866.61,5206.95 1864.53,5203.08 1863.23,5200.67 1853.43,5182.61 1850.55,5177.28 1850.00,5176.25 1843.86,5164.91"/>
    <poly id="265147735" type="building" color="255,230,230" fill="1" layer="-1.00" shape="1900.40,5134.35 1885.35,5142.48 1858.87,5156.82 1843.86,5164.91 1850.00,5176.25 1850.55,5177.28 1853.43,5182.61 1863.23,5200.67 1864.53,5203.08 1866.61,5206.95 1872.69,5218.24 1879.63,5214.52 1891.40,5208.22 1910.74,5197.71 1922.37,5191.41 1929.26,5187.67 1927.73,5184.71 1926.16,5181.83 1924.85,5179.42 1923.64,5177.20 1923.38,5176.72 1921.04,5172.43 1915.95,5163.08 1911.34,5154.54 1909.73,5151.60 1907.30,5147.13 1900.40,5134.35"/>
    <poly id="265147735#1" type="tourism" color="207,245,201" fill="1" layer="-2.00" shape="1900.40,5134.35 1885.35,5142.48 1858.87,5156.82 1843.86,5164.91 1850.00,5176.25 1850.55,5177.28 1853.43,5182.61 1863.23,5200.67 1864.53,5203.08 1866.61,5206.95 1872.69,5218.24 1879.63,5214.52 1891.40,5208.22 1910.74,5197.71 1922.37,5191.41 1929.26,5187.67 1927.73,5184.71 1926.16,5181.83 1924.85,5179.42 1923.64,5177.20 1923.38,5176.72 1921.04,5172.43 1915.95,5163.08 1911.34,5154.54 1909.73,5151.60 1907.30,5147.13 1900.40,5134.35"/>
    <poly id="265147944" type="amenity" color="237,199,199" fill="1" layer="-1.00" shape="1914.16,5070.59 1913.91,5070.12 1914.60,5069.75 1911.31,5063.70 1926.92,5055.25 1915.99,5035.07 1872.76,5058.51 1885.72,5082.43 1894.85,5077.49 1896.34,5080.25 1904.89,5075.62 1914.16,5070.59"/>
    <poly id="265147944#1" type="building" color="255,230,230" fill="1" layer="-1.00" shape="1914.16,5070.59 1913.91,5070.12 1914.60,5069.75 1911.31,5063.70 1926.92,5055.25 1915.99,5035.07 1872.76,5058.51 1885.72,5082.43 1894.85,5077.49 1896.34,5080.25 1904.89,5075.62 1914.16,5070.59"/>
    <poly id="265147947" type="building" color="255,230,230" fill="1" layer="-1.00" shape="1922.83,5075.09 1919.92,5076.68 1916.06,5069.56 1914.16,5070.59 1904.89,5075.62 1907.56,5080.56 1910.70,5086.33 1915.09,5094.43 1919.62,5102.80 1933.71,5095.16 1922.83,5075.09"/>
    <poly id="265147948" type="building" color="255,230,230" fill="1" layer="-1.00" shape="1915.09,5094.43 1910.00,5097.19 1905.62,5089.09 1910.70,5086.33 1907.56,5080.56 1887.99,5091.16 1891.12,5096.94 1896.82,5093.85 1901.22,5101.95 1895.52,5105.05 1900.05,5113.41 1919.62,5102.80 1915.09,5094.43"/>
    <poly id="265147950" type="building" color="255,230,230" fill="1" layer="-1.00" shape="1872.76,5058.51 1860.82,5064.98 1871.05,5083.82 1875.24,5091.57 1887.17,5085.10 1885.72,5082.43 1872.76,5058.51"/>
    <poly id="265147951" type="building" color="255,230,230" fill="1" layer="-1.00" shape="1887.99,5091.16 1878.50,5096.32 1885.75,5109.69 1890.56,5118.56 1900.05,5113.41 1895.52,5105.05 1891.12,5096.94 1887.99,5091.16"/>
    <poly id="265147952" type="building" color="255,230,230" fill="1" layer="-1.00" shape="1885.75,5109.69 1883.03,5111.16 1875.55,5097.36 1862.27,5104.55 1865.66,5110.80 1869.62,5108.65 1874.01,5116.74 1869.98,5118.92 1874.51,5127.26 1890.56,5118.56 1885.75,5109.69"/>
    <poly id="265147953" type="building" color="255,230,230" fill="1" layer="-1.00" shape="1869.98,5118.92 1867.66,5120.18 1859.82,5105.74 1852.98,5109.44 1859.65,5121.77 1857.51,5122.91 1863.02,5133.48 1874.51,5127.26 1869.98,5118.92"/>
    <poly id="265147967" type="building" color="255,230,230" fill="1" layer="-1.00" shape="1832.40,5133.34 1829.64,5134.83 1823.68,5123.85 1811.48,5130.46 1809.88,5127.50 1794.39,5135.89 1808.22,5161.39 1809.00,5161.81 1809.43,5161.92 1809.88,5161.95 1810.76,5161.81 1839.41,5146.29 1832.40,5133.34"/>
    <poly id="265147969" type="building" color="255,230,230" fill="1" layer="-1.00" shape="1807.36,5093.97 1779.77,5108.92 1792.78,5132.92 1804.30,5126.67 1797.15,5113.48 1803.08,5110.27 1808.71,5120.64 1816.13,5116.62 1811.63,5108.32 1814.35,5106.84 1812.87,5104.12 1807.36,5093.97"/>
    <poly id="265148502" type="amenity" color="237,199,199" fill="1" layer="-1.00" shape="1804.66,5060.31 1801.42,5054.33 1790.60,5034.42 1785.67,5037.07 1774.79,5017.03 1779.71,5014.37 1777.54,5010.37 1776.45,5008.35 1775.65,5006.88 1770.02,5009.88 1769.72,5009.33 1734.98,5028.19 1742.47,5041.99 1764.31,5082.22 1776.82,5075.44 1782.84,5072.17 1804.66,5060.31"/>
    <poly id="265148502#1" type="building" color="255,230,230" fill="1" layer="-1.00" shape="1804.66,5060.31 1801.42,5054.33 1790.60,5034.42 1785.67,5037.07 1774.79,5017.03 1779.71,5014.37 1777.54,5010.37 1776.45,5008.35 1775.65,5006.88 1770.02,5009.88 1769.72,5009.33 1734.98,5028.19 1742.47,5041.99 1764.31,5082.22 1776.82,5075.44 1782.84,5072.17 1804.66,5060.31"/>
    <poly id="265148505" type="building" color="255,230,230" fill="1" layer="-1.00" shape="1790.38,4999.06 1775.65,5006.88 1776.45,5008.35 1777.54,5010.37 1779.71,5014.37 1774.79,5017.03 1785.67,5037.07 1790.60,5034.42 1801.42,5054.33 1804.66,5060.31 1819.32,5052.35 1816.11,5046.41 1805.13,5026.18 1794.41,5006.45 1792.24,5002.44 1791.15,5000.43 1790.38,4999.06"/>
    <poly id="265148511" type="building" color="255,230,230" fill="1" layer="-1.00" shape="1918.20,4965.18 1898.54,4975.93 1905.06,4987.76 1910.30,4984.90 1913.27,4990.28 1908.03,4993.15 1912.70,5001.65 1932.36,4990.91 1931.70,4989.69 1930.67,4987.91 1929.44,4985.65 1924.14,4975.91 1923.15,4974.09 1918.20,4965.18"/>
    <poly id="265148513" type="building" color="255,230,230" fill="1" layer="-1.00" shape="1857.91,4964.38 1851.83,4967.69 1863.22,4988.67 1869.33,4985.35 1866.54,4980.29 1859.28,4967.11 1857.91,4964.38"/>
    <poly id="265148516" type="building" color="255,230,230" fill="1" layer="-1.00" shape="1851.83,4967.69 1846.35,4970.65 1857.75,4991.64 1863.22,4988.67 1851.83,4967.69"/>
    <poly id="265148518" type="building" color="255,230,230" fill="1" layer="-1.00" shape="1846.35,4970.65 1840.41,4973.88 1851.80,4994.86 1857.75,4991.64 1846.35,4970.65"/>
    <poly id="265148522" type="building" color="255,230,230" fill="1" layer="-1.00" shape="1882.61,5003.12 1878.35,5005.44 1876.88,5002.78 1877.97,5002.19 1879.76,5001.21 1876.04,4994.44 1861.70,5002.27 1865.26,5008.72 1867.64,5007.42 1868.17,5008.36 1869.23,5010.30 1863.11,5013.66 1869.50,5025.26 1888.94,5014.63 1886.85,5010.82 1884.31,5006.20 1882.61,5003.12"/>
    <poly id="265148524" type="building" color="255,230,230" fill="1" layer="-1.00" shape="1839.76,4972.69 1823.29,4981.66 1831.96,4997.62 1835.52,5004.20 1837.39,5007.69 1837.50,5007.89 1854.01,4998.92 1851.80,4994.86 1840.41,4973.88 1839.76,4972.69"/>
    <poly id="265148525" type="building" color="255,230,230" fill="1" layer="-1.00" shape="1863.11,5013.66 1856.95,5017.00 1855.36,5014.07 1858.07,5012.60 1854.64,5006.28 1840.24,5014.09 1845.27,5023.33 1841.61,5025.32 1846.82,5034.94 1847.89,5036.92 1869.50,5025.26 1863.11,5013.66"/>
    <poly id="265148526" type="building" color="255,230,230" fill="1" layer="-1.00" shape="1811.40,5022.78 1805.13,5026.18 1816.11,5046.41 1819.32,5052.35 1825.60,5048.94 1811.40,5022.78"/>
    <poly id="265148529" type="building" color="255,230,230" fill="1" layer="-1.00" shape="1796.66,4995.64 1790.38,4999.06 1791.15,5000.43 1792.24,5002.44 1794.41,5006.45 1805.13,5026.18 1811.40,5022.78 1805.48,5011.88 1796.66,4995.64"/>
    <poly id="265148531" type="building" color="255,230,230" fill="1" layer="-1.00" shape="1898.54,4975.93 1918.20,4965.18 1924.69,4961.64 1919.78,4952.71 1911.88,4938.36 1859.28,4967.11 1866.54,4980.29 1869.33,4985.35 1872.06,4990.29 1893.02,4978.83 1895.51,4983.36 1897.35,4986.69 1899.93,4991.37 1902.59,4996.21 1905.13,5000.83 1907.22,5004.64 1912.70,5001.65 1908.03,4993.15 1905.06,4987.76 1898.54,4975.93"/>
    <poly id="265148531#1" type="tourism" color="207,245,201" fill="1" layer="-2.00" shape="1898.54,4975.93 1918.20,4965.18 1924.69,4961.64 1919.78,4952.71 1911.88,4938.36 1859.28,4967.11 1866.54,4980.29 1869.33,4985.35 1872.06,4990.29 1893.02,4978.83 1895.51,4983.36 1897.35,4986.69 1899.93,4991.37 1902.59,4996.21 1905.13,5000.83 1907.22,5004.64 1912.70,5001.65 1908.03,4993.15 1905.06,4987.76 1898.54,4975.93"/>
    <poly id="265148534" type="building" color="255,230,230" fill="1" layer="-1.00" shape="1834.64,5009.13 1837.39,5007.69 1835.52,5004.20 1831.96,4997.62 1824.35,5001.73 1822.89,5002.51 1813.46,5007.60 1808.42,5010.30 1805.48,5011.88 1811.40,5022.78 1825.60,5048.94 1827.29,5048.00 1827.81,5045.22 1829.91,5044.10 1830.98,5046.07 1832.46,5045.28 1843.94,5039.06 1847.89,5036.92 1846.82,5034.94 1841.61,5025.32 1834.16,5011.59 1834.64,5009.13"/>
    <poly id="265148538" type="building" color="255,230,230" fill="1" layer="-1.00" shape="1924.69,4961.64 1938.22,4954.33 1943.08,4963.33 1944.08,4965.15 1949.37,4974.88 1950.60,4977.14 1951.59,4978.95 1952.25,4980.17 1979.07,4965.60 1950.31,4912.66 1924.00,4926.94 1925.13,4929.02 1911.06,4936.66 1911.88,4938.36 1919.78,4952.71 1924.69,4961.64"/>
    <poly id="265150597" type="amenity" color="237,199,199" fill="1" layer="-1.00" shape="1841.32,4933.42 1837.44,4935.52 1829.74,4921.30 1833.62,4919.20 1824.04,4901.50 1819.43,4892.99 1779.21,4914.76 1793.68,4941.51 1806.76,4934.42 1816.46,4952.44 1821.09,4960.90 1821.50,4961.66 1848.65,4946.97 1848.22,4946.16 1843.60,4937.49 1841.32,4933.42"/>
    <poly id="265150597#1" type="building" color="255,230,230" fill="1" layer="-1.00" shape="1841.32,4933.42 1837.44,4935.52 1829.74,4921.30 1833.62,4919.20 1824.04,4901.50 1819.43,4892.99 1779.21,4914.76 1793.68,4941.51 1806.76,4934.42 1816.46,4952.44 1821.09,4960.90 1821.50,4961.66 1848.65,4946.97 1848.22,4946.16 1843.60,4937.49 1841.32,4933.42"/>
    <poly id="265150598" type="building" color="255,230,230" fill="1" layer="-1.00" shape="1806.76,4934.42 1793.68,4941.51 1779.21,4914.76 1776.04,4916.47 1772.34,4918.49 1776.61,4926.39 1779.72,4932.12 1783.87,4939.80 1786.81,4945.22 1780.02,4948.90 1778.82,4949.55 1777.57,4950.24 1776.31,4950.91 1759.93,4959.78 1746.67,4966.87 1748.63,4970.73 1749.76,4972.55 1761.05,4993.41 1788.74,4978.17 1807.17,4968.25 1810.96,4966.27 1821.09,4960.90 1816.46,4952.44 1806.76,4934.42"/>
    <poly id="265150599" type="building" color="255,230,230" fill="1" layer="-1.00" shape="1868.27,4877.45 1875.10,4873.75 1879.08,4881.12 1872.25,4884.81 1875.68,4890.97 1876.05,4891.82 1898.52,4879.64 1894.73,4872.65 1888.34,4876.11 1884.35,4868.74 1890.74,4865.29 1886.21,4856.92 1863.73,4869.08 1868.27,4877.45"/>
    <poly id="265150600" type="building" color="255,230,230" fill="1" layer="-1.00" shape="1901.94,4918.12 1915.34,4910.88 1910.17,4901.35 1904.25,4904.56 1901.39,4899.25 1907.28,4896.06 1902.15,4886.57 1888.79,4893.81 1891.75,4899.28 1898.37,4911.53 1899.65,4913.89 1901.94,4918.12"/>
    <poly id="265150601" type="building" color="255,230,230" fill="1" layer="-1.00" shape="1887.32,4891.09 1878.28,4895.94 1866.77,4902.12 1871.21,4910.31 1873.81,4915.14 1876.56,4920.21 1877.59,4922.13 1879.11,4924.92 1881.40,4929.16 1901.94,4918.12 1899.65,4913.89 1898.37,4911.53 1891.75,4899.28 1888.79,4893.81 1887.32,4891.09"/>
    <poly id="265150602" type="building" color="255,230,230" fill="1" layer="-1.00" shape="1782.46,4857.43 1772.22,4862.93 1769.36,4864.46 1771.47,4868.40 1775.21,4875.38 1779.11,4882.64 1783.88,4891.53 1796.98,4884.50 1782.46,4857.43"/>
    <poly id="265150603" type="building" color="255,230,230" fill="1" layer="-1.00" shape="1779.11,4882.64 1775.01,4884.84 1771.12,4877.57 1775.21,4875.38 1771.47,4868.40 1758.73,4875.22 1762.49,4882.20 1766.13,4880.26 1770.02,4887.51 1766.39,4889.47 1771.15,4898.36 1783.88,4891.53 1779.11,4882.64"/>
    <poly id="265150604" type="building" color="255,230,230" fill="1" layer="-1.00" shape="1779.72,4932.12 1773.89,4935.27 1770.78,4929.54 1776.61,4926.39 1772.34,4918.49 1745.45,4933.04 1748.79,4939.20 1755.31,4935.67 1759.21,4942.85 1752.67,4946.38 1755.04,4950.74 1756.99,4954.35 1783.87,4939.80 1779.72,4932.12"/>
    <poly id="265150605" type="building" color="255,230,230" fill="1" layer="-1.00" shape="1755.04,4950.74 1746.57,4955.33 1746.11,4954.48 1744.86,4955.15 1741.28,4948.55 1741.06,4948.16 1750.79,4942.89 1748.79,4939.20 1745.45,4933.04 1732.13,4940.25 1735.87,4947.15 1746.34,4966.50 1746.67,4966.87 1759.93,4959.78 1756.99,4954.35 1755.04,4950.74"/>
    <poly id="265150606" type="building" color="255,230,230" fill="1" layer="-1.00" shape="1730.03,4900.04 1734.02,4897.90 1735.18,4900.07 1739.13,4897.95 1741.42,4902.22 1737.47,4904.34 1738.68,4906.57 1734.68,4908.71 1738.52,4915.86 1765.01,4901.65 1761.20,4894.57 1757.08,4896.77 1755.85,4894.47 1751.88,4896.60 1749.59,4892.35 1753.56,4890.22 1752.40,4888.04 1756.52,4885.83 1752.70,4878.71 1726.22,4892.93 1730.03,4900.04"/>
    <poly id="265150607" type="building" color="255,230,230" fill="1" layer="-1.00" shape="1723.91,4888.64 1715.44,4893.18 1730.05,4920.41 1738.52,4915.86 1734.68,4908.71 1730.03,4900.04 1726.22,4892.93 1723.91,4888.64"/>
    <poly id="265150608" type="building" color="255,230,230" fill="1" layer="-1.00" shape="1749.76,4972.55 1742.73,4976.36 1743.33,4977.47 1754.02,4997.21 1761.05,4993.41 1749.76,4972.55"/>
    <poly id="265150609" type="building" color="255,230,230" fill="1" layer="-1.00" shape="1750.99,4874.11 1767.02,4903.99 1768.92,4902.97 1771.03,4901.85 1754.99,4871.96 1755.52,4871.68 1741.22,4845.03 1738.65,4846.41 1687.75,4873.72 1690.24,4878.36 1702.05,4900.36 1710.07,4896.06 1715.44,4893.18 1723.91,4888.64 1750.99,4874.11"/>
    <poly id="265150609#1" type="tourism" color="207,245,201" fill="1" layer="-2.00" shape="1750.99,4874.11 1767.02,4903.99 1768.92,4902.97 1771.03,4901.85 1754.99,4871.96 1755.52,4871.68 1741.22,4845.03 1738.65,4846.41 1687.75,4873.72 1690.24,4878.36 1702.05,4900.36 1710.07,4896.06 1715.44,4893.18 1723.91,4888.64 1750.99,4874.11"/>
    <poly id="265150610" type="building" color="255,230,230" fill="1" layer="-1.00" shape="1677.53,4897.57 1680.95,4895.73 1682.62,4898.84 1691.01,4894.34 1688.03,4888.78 1691.06,4887.15 1687.17,4879.88 1684.74,4875.34 1660.60,4888.28 1671.38,4908.36 1680.65,4903.38 1677.53,4897.57"/>
    <poly id="265150611" type="building" color="255,230,230" fill="1" layer="-1.00" shape="1866.77,4902.12 1878.28,4895.94 1876.05,4891.82 1875.68,4890.97 1872.25,4884.81 1868.27,4877.45 1863.73,4869.08 1824.04,4901.50 1833.62,4919.20 1835.89,4923.39 1836.65,4924.84 1841.32,4933.42 1843.60,4937.49 1848.22,4946.16 1876.56,4920.21 1873.81,4915.14 1871.21,4910.31 1866.77,4902.12"/>
    <poly id="265150612" type="building" color="255,230,230" fill="1" layer="-1.00" shape="1743.33,4977.47 1733.20,4982.95 1735.63,4987.46 1733.33,4988.71 1733.18,4988.43 1728.51,4990.97 1729.18,4992.19 1727.47,4993.12 1724.38,4987.41 1716.72,4991.56 1727.54,5011.55 1754.02,4997.21 1743.33,4977.47"/>
    <poly id="265150613" type="building" color="255,230,230" fill="1" layer="-1.00" shape="1913.34,4842.16 1888.71,4855.53 1893.67,4864.67 1899.16,4861.68 1899.85,4862.95 1901.38,4862.11 1902.95,4865.02 1901.40,4865.87 1902.06,4867.10 1899.39,4868.55 1912.66,4892.99 1915.34,4891.54 1916.20,4893.13 1917.76,4892.28 1919.23,4894.99 1917.67,4895.83 1918.36,4897.11 1912.89,4900.07 1918.00,4909.47 1942.63,4896.09 1913.34,4842.16"/>
    <poly id="265150614" type="building" color="255,230,230" fill="1" layer="-1.00" shape="1725.37,4986.88 1721.81,4980.30 1727.77,4977.07 1730.56,4982.24 1738.23,4978.10 1735.42,4972.93 1739.76,4970.58 1741.84,4974.40 1748.63,4970.73 1746.67,4966.87 1746.34,4966.50 1743.99,4967.76 1733.52,4948.42 1735.87,4947.15 1732.13,4940.25 1725.06,4944.04 1726.50,4946.69 1727.15,4947.87 1727.99,4949.42 1732.23,4957.18 1734.77,4961.85 1714.53,4972.81 1712.00,4968.14 1709.62,4969.42 1708.40,4970.08 1705.84,4971.46 1711.05,4981.56 1716.72,4991.56 1724.38,4987.41 1725.37,4986.88"/>
    <poly id="265150615" type="building" color="255,230,230" fill="1" layer="-1.00" shape="1701.94,4900.42 1703.94,4904.14 1701.05,4905.69 1701.49,4906.51 1700.74,4906.91 1701.10,4907.58 1699.58,4908.40 1694.66,4899.23 1684.03,4904.94 1682.62,4902.33 1680.65,4903.38 1671.38,4908.36 1678.04,4920.78 1688.77,4915.02 1691.43,4920.00 1680.71,4925.75 1689.51,4942.16 1700.56,4936.23 1695.23,4926.29 1700.57,4923.42 1705.90,4933.36 1711.88,4930.15 1706.24,4919.65 1710.77,4917.22 1716.42,4927.73 1727.37,4921.84 1719.91,4907.93 1717.21,4909.38 1710.07,4896.06 1702.05,4900.36 1701.94,4900.42"/>
    <poly id="265150616" type="building" color="255,230,230" fill="1" layer="-1.00" shape="1796.98,4884.50 1817.07,4873.73 1788.16,4819.86 1768.08,4830.63 1782.46,4857.43 1796.98,4884.50"/>
    <poly id="265150617" type="building" color="255,230,230" fill="1" layer="-1.00" shape="1732.23,4957.18 1727.99,4949.42 1727.15,4947.87 1726.50,4946.69 1725.06,4944.04 1722.56,4945.39 1698.73,4958.33 1700.65,4961.81 1704.06,4968.16 1705.84,4971.46 1708.40,4970.08 1709.62,4969.42 1712.00,4968.14 1723.37,4961.98 1732.23,4957.18"/>
    <poly id="265151078" type="building" color="255,230,230" fill="1" layer="-1.00" shape="1607.21,4965.77 1608.33,4965.17 1609.82,4967.97 1612.01,4966.81 1612.66,4968.02 1610.68,4969.07 1613.81,4974.95 1612.48,4975.65 1615.92,4982.11 1624.57,4977.49 1624.61,4975.32 1623.64,4973.51 1621.80,4972.31 1619.64,4968.25 1622.56,4966.70 1624.71,4970.75 1624.70,4972.95 1625.66,4974.76 1627.73,4975.81 1636.24,4971.26 1632.80,4964.82 1631.38,4965.57 1628.25,4959.70 1626.25,4960.77 1625.60,4959.56 1627.70,4958.44 1626.21,4955.63 1627.23,4955.08 1621.44,4944.24 1613.51,4948.47 1619.83,4960.34 1618.78,4959.77 1615.94,4961.28 1615.49,4961.94 1609.46,4950.64 1601.42,4954.92 1602.12,4956.22 1607.21,4965.77"/>
    <poly id="265151083" type="building" color="255,230,230" fill="1" layer="-1.00" shape="1660.34,5103.04 1656.45,5105.13 1655.49,5103.36 1649.98,5106.32 1651.03,5108.29 1647.31,5110.29 1645.69,5107.25 1638.75,5110.98 1655.08,5141.41 1675.15,5130.65 1672.29,5125.31 1660.34,5103.04"/>
    <poly id="265151090" type="building" color="255,230,230" fill="1" layer="-1.00" shape="1534.24,5086.57 1528.82,5089.52 1530.13,5091.91 1541.02,5111.94 1546.42,5109.02 1545.67,5107.56 1538.98,5095.29 1534.48,5087.01 1534.24,5086.57"/>
    <poly id="265151095" type="building" color="255,230,230" fill="1" layer="-1.00" shape="1530.13,5091.91 1524.57,5094.94 1535.15,5114.37 1535.47,5114.96 1541.02,5111.94 1530.13,5091.91"/>
    <poly id="265151098" type="building" color="255,230,230" fill="1" layer="-1.00" shape="1522.66,5091.43 1510.75,5097.92 1523.24,5120.84 1535.15,5114.37 1524.57,5094.94 1522.66,5091.43"/>
    <poly id="265151101" type="building" color="255,230,230" fill="1" layer="-1.00" shape="1506.19,5006.08 1505.06,5006.67 1500.61,5008.92 1514.45,5035.43 1520.01,5032.56 1514.29,5021.61 1506.19,5006.08"/>
    <poly id="265151105" type="building" color="255,230,230" fill="1" layer="-1.00" shape="1509.59,5095.78 1504.19,5098.72 1518.16,5124.38 1523.56,5121.45 1523.24,5120.84 1510.75,5097.92 1509.59,5095.78"/>
    <poly id="265151108" type="building" color="255,230,230" fill="1" layer="-1.00" shape="1517.53,5055.70 1510.57,5059.44 1523.08,5082.53 1530.02,5078.79 1525.76,5070.91 1522.50,5064.89 1519.25,5058.89 1517.53,5055.70"/>
    <poly id="265151113" type="building" color="255,230,230" fill="1" layer="-1.00" shape="1503.66,5097.76 1498.42,5100.61 1509.32,5120.65 1512.92,5127.24 1518.16,5124.38 1504.19,5098.72 1503.66,5097.76"/>